<?xml version="1.0" encoding="UTF-8"?>

<!-- generated on Mi 18 Dez 2019 15:46:08 CET by Eclipse SUMO netedit Version v1_1_0+0000-2147d155b1
<configuration xmlns:xsi="http://www.w3.org/2001/XMLSchema-instance" xsi:noNamespaceSchemaLocation="http://sumo.dlr.de/xsd/netconvertConfiguration.xsd">

    <input>
        <sumo-net-file value="lemgo.net.xml"/>
    </input>

    <output>
        <output-file value="lemgo.net.xml"/>
    </output>

    <processing>
        <geometry.max-grade.fix value="false"/>
        <offset.disable-normalization value="true"/>
        <lefthand value="false"/>
    </processing>

    <junctions>
        <no-turnarounds value="true"/>
        <junctions.corner-detail value="5"/>
        <junctions.limit-turn-speed value="5.5"/>
        <rectangular-lane-cut value="false"/>
    </junctions>

    <pedestrian>
        <walkingareas value="false"/>
    </pedestrian>

    <netedit>
        <sumo-additionals-file value="lemgo.add.xml"/>
    </netedit>

</configuration>
-->

<net version="1.1" junctionCornerDetail="5" limitTurnSpeed="5.50" xmlns:xsi="http://www.w3.org/2001/XMLSchema-instance" xsi:noNamespaceSchemaLocation="http://sumo.dlr.de/xsd/net_file.xsd">

    <location netOffset="-491799.34,-5762705.77" convBoundary="372.65,473.76,2580.04,2225.69" origBoundary="8.880483,52.014953,8.924198,52.036791" projParameter="+proj=utm +zone=32 +ellps=WGS84 +datum=WGS84 +units=m +no_defs"/>

    <type id="highway.bridleway" priority="1" numLanes="1" speed="2.78" allow="pedestrian" oneway="1" width="2.00"/>
    <type id="highway.bus_guideway" priority="1" numLanes="1" speed="27.78" allow="bus" oneway="1"/>
    <type id="highway.cycleway" priority="1" numLanes="1" speed="8.33" allow="bicycle" oneway="0" width="1.00"/>
    <type id="highway.footway" priority="1" numLanes="1" speed="2.78" allow="pedestrian" oneway="1" width="2.00"/>
    <type id="highway.ford" priority="1" numLanes="1" speed="2.78" allow="army" oneway="0"/>
    <type id="highway.living_street" priority="3" numLanes="1" speed="2.78" disallow="tram rail_urban rail rail_electric ship" oneway="0"/>
    <type id="highway.motorway" priority="13" numLanes="2" speed="44.44" allow="private emergency authority army vip passenger hov taxi bus coach delivery truck trailer motorcycle evehicle custom1 custom2" oneway="1"/>
    <type id="highway.motorway_link" priority="12" numLanes="1" speed="22.22" allow="private emergency authority army vip passenger hov taxi bus coach delivery truck trailer motorcycle evehicle custom1 custom2" oneway="1"/>
    <type id="highway.path" priority="1" numLanes="1" speed="2.78" allow="bicycle pedestrian" oneway="1" width="2.00"/>
    <type id="highway.pedestrian" priority="1" numLanes="1" speed="2.78" allow="pedestrian" oneway="1" width="2.00"/>
    <type id="highway.primary" priority="9" numLanes="2" speed="27.78" disallow="tram rail_urban rail rail_electric ship" oneway="0"/>
    <type id="highway.primary_link" priority="8" numLanes="1" speed="22.22" disallow="tram rail_urban rail rail_electric ship" oneway="0"/>
    <type id="highway.raceway" priority="14" numLanes="2" speed="83.33" allow="vip" oneway="0"/>
    <type id="highway.residential" priority="4" numLanes="1" speed="13.89" disallow="tram rail_urban rail rail_electric ship" oneway="0"/>
    <type id="highway.secondary" priority="7" numLanes="2" speed="27.78" disallow="tram rail_urban rail rail_electric ship" oneway="0"/>
    <type id="highway.secondary_link" priority="6" numLanes="1" speed="22.22" disallow="tram rail_urban rail rail_electric ship" oneway="0"/>
    <type id="highway.service" priority="2" numLanes="1" speed="5.56" allow="delivery bicycle pedestrian" oneway="0"/>
    <type id="highway.stairs" priority="1" numLanes="1" speed="1.39" allow="pedestrian" oneway="1" width="2.00"/>
    <type id="highway.step" priority="1" numLanes="1" speed="1.39" allow="pedestrian" oneway="1" width="2.00"/>
    <type id="highway.steps" priority="1" numLanes="1" speed="1.39" allow="pedestrian" oneway="1" width="2.00"/>
    <type id="highway.tertiary" priority="6" numLanes="1" speed="22.22" disallow="tram rail_urban rail rail_electric ship" oneway="0"/>
    <type id="highway.tertiary_link" priority="5" numLanes="1" speed="22.22" disallow="tram rail_urban rail rail_electric ship" oneway="0"/>
    <type id="highway.track" priority="1" numLanes="1" speed="5.56" disallow="tram rail_urban rail rail_electric ship" oneway="0"/>
    <type id="highway.trunk" priority="11" numLanes="2" speed="27.78" disallow="tram rail_urban rail rail_electric bicycle pedestrian ship" oneway="0"/>
    <type id="highway.trunk_link" priority="10" numLanes="1" speed="22.22" disallow="tram rail_urban rail rail_electric bicycle pedestrian ship" oneway="0"/>
    <type id="highway.unclassified" priority="5" numLanes="1" speed="13.89" disallow="tram rail_urban rail rail_electric ship" oneway="0"/>
    <type id="highway.unsurfaced" priority="1" numLanes="1" speed="8.33" disallow="tram rail_urban rail rail_electric ship" oneway="0"/>
    <type id="railway.light_rail" priority="15" numLanes="1" speed="27.78" allow="rail_urban" oneway="1"/>
    <type id="railway.preserved" priority="15" numLanes="1" speed="27.78" allow="rail" oneway="1"/>
    <type id="railway.rail" priority="15" numLanes="1" speed="83.33" allow="rail rail_electric" oneway="1"/>
    <type id="railway.subway" priority="15" numLanes="1" speed="27.78" allow="rail_urban" oneway="1"/>
    <type id="railway.tram" priority="15" numLanes="1" speed="13.89" allow="tram" oneway="1"/>

    <edge id=":260218623_0" function="internal">
        <lane id=":260218623_0_0" index="0" disallow="tram rail_urban rail rail_electric ship" speed="13.89" length="7.58" shape="1489.39,2133.33 1488.40,2131.35 1487.01,2130.38 1485.53,2129.43 1484.30,2127.53"/>
        <lane id=":260218623_0_1" index="1" disallow="tram rail_urban rail rail_electric ship" speed="13.89" length="7.58" shape="1489.39,2133.33 1488.88,2131.25 1488.50,2129.83 1488.04,2128.44 1487.31,2126.42"/>
    </edge>
    <edge id=":260218623_2" function="internal">
        <lane id=":260218623_2_0" index="0" speed="13.89" length="7.59" shape="1490.31,2125.32 1491.08,2127.44 1491.56,2128.91 1491.97,2130.40 1492.50,2132.59"/>
    </edge>
    <edge id=":260218684_0" function="internal">
        <lane id=":260218684_0_0" index="0" disallow="tram rail_urban rail rail_electric ship" speed="13.89" length="8.41" shape="1588.07,2049.77 1585.60,2050.25 1584.04,2051.33 1582.48,2052.41 1580.00,2052.85"/>
        <lane id=":260218684_0_1" index="1" disallow="tram rail_urban rail rail_electric ship" speed="13.89" length="8.41" shape="1588.07,2049.77 1580.07,2049.65"/>
    </edge>
    <edge id=":260218684_2" function="internal">
        <lane id=":260218684_2_0" index="0" speed="13.89" length="7.96" shape="1580.14,2046.45 1588.10,2046.57"/>
    </edge>
    <edge id=":260218684_3" function="internal">
        <lane id=":260218684_3_0" index="0" disallow="tram rail_urban rail rail_electric ship" speed="3.65" length="2.34" shape="1580.14,2046.45 1581.32,2047.28 1581.71,2048.09"/>
    </edge>
    <edge id=":260218684_4" function="internal">
        <lane id=":260218684_4_0" index="0" disallow="tram rail_urban rail rail_electric ship" speed="3.65" length="2.34" shape="1581.71,2048.09 1581.29,2048.88 1580.07,2049.65"/>
    </edge>
    <edge id=":27154014_0" function="internal">
        <lane id=":27154014_0_0" index="0" speed="13.89" length="7.91" shape="1394.33,2050.32 1386.49,2049.29"/>
    </edge>
    <edge id=":27154014_1" function="internal">
        <lane id=":27154014_1_0" index="0" speed="13.89" length="8.04" shape="1387.02,2046.13 1389.39,2046.02 1390.96,2045.15 1392.54,2044.22 1394.93,2043.94"/>
        <lane id=":27154014_1_1" index="1" speed="13.89" length="8.04" shape="1387.02,2046.13 1394.63,2047.13"/>
    </edge>
    <edge id=":27154051_0" function="internal">
        <lane id=":27154051_0_0" index="0" speed="7.63" length="12.43" shape="2211.49,1258.94 2207.47,1257.76 2204.29,1257.64 2201.94,1258.59 2200.42,1260.60"/>
    </edge>
    <edge id=":27154051_1" function="internal">
        <lane id=":27154051_1_0" index="0" disallow="tram rail_urban rail rail_electric ship" speed="11.11" length="21.74" shape="2211.49,1258.94 2205.26,1256.01 2200.28,1252.94 2196.18,1250.21 2192.56,1248.32"/>
    </edge>
    <edge id=":27154051_2" function="internal">
        <lane id=":27154051_2_0" index="0" speed="8.99" length="10.00" shape="2212.64,1255.96 2207.93,1253.35 2205.27,1249.96 2205.23,1249.65"/>
    </edge>
    <edge id=":27154051_12" function="internal">
        <lane id=":27154051_12_0" index="0" speed="8.99" length="9.05" shape="2205.23,1249.65 2204.66,1245.80 2206.10,1240.85"/>
    </edge>
    <edge id=":27154051_3" function="internal">
        <lane id=":27154051_3_0" index="0" speed="6.84" length="10.58" shape="2211.70,1244.01 2210.63,1247.16 2210.62,1249.71 2211.68,1251.64 2213.80,1252.97"/>
    </edge>
    <edge id=":27154051_4" function="internal">
        <lane id=":27154051_4_0" index="0" speed="13.89" length="20.12" shape="2211.70,1244.01 2208.44,1249.78 2205.23,1253.99 2202.43,1257.35 2200.42,1260.60"/>
    </edge>
    <edge id=":27154051_5" function="internal">
        <lane id=":27154051_5_0" index="0" disallow="tram rail_urban rail rail_electric ship" speed="9.55" length="9.86" shape="2208.90,1242.43 2206.11,1246.63 2202.45,1249.02 2202.01,1249.07"/>
    </edge>
    <edge id=":27154051_13" function="internal">
        <lane id=":27154051_13_0" index="0" disallow="tram rail_urban rail rail_electric ship" speed="9.55" length="9.62" shape="2202.01,1249.07 2197.94,1249.58 2192.56,1248.32"/>
    </edge>
    <edge id=":27154051_6" function="internal">
        <lane id=":27154051_6_0" index="0" speed="7.77" length="12.54" shape="2194.80,1242.33 2198.91,1243.50 2202.16,1243.65 2204.56,1242.76 2206.10,1240.85"/>
    </edge>
    <edge id=":27154051_7" function="internal">
        <lane id=":27154051_7_0" index="0" speed="11.11" length="21.82" shape="2194.80,1242.33 2201.07,1245.21 2206.06,1248.29 2210.18,1251.04 2213.80,1252.97"/>
    </edge>
    <edge id=":27154051_8" function="internal">
        <lane id=":27154051_8_0" index="0" speed="9.08" length="10.02" shape="2193.68,1245.32 2198.41,1247.89 2201.10,1251.29 2201.15,1251.59"/>
    </edge>
    <edge id=":27154051_14" function="internal">
        <lane id=":27154051_14_0" index="0" speed="9.08" length="9.24" shape="2201.15,1251.59 2201.78,1255.52 2200.42,1260.60"/>
    </edge>
    <edge id=":27154051_9" function="internal">
        <lane id=":27154051_9_0" index="0" disallow="tram rail_urban rail rail_electric ship" speed="7.09" length="11.33" shape="2194.55,1258.07 2195.67,1254.55 2195.72,1251.75 2194.68,1249.68 2192.56,1248.32"/>
    </edge>
    <edge id=":27154051_10" function="internal">
        <lane id=":27154051_10_0" index="0" speed="13.89" length="20.80" shape="2194.55,1258.07 2197.72,1252.14 2201.02,1247.72 2203.97,1244.16 2206.10,1240.85"/>
    </edge>
    <edge id=":27154051_11" function="internal">
        <lane id=":27154051_11_0" index="0" speed="9.49" length="10.38" shape="2197.48,1259.33 2200.26,1254.86 2203.90,1252.31 2204.57,1252.22"/>
    </edge>
    <edge id=":27154051_15" function="internal">
        <lane id=":27154051_15_0" index="0" speed="9.49" length="9.42" shape="2204.57,1252.22 2208.41,1251.68 2213.80,1252.97"/>
    </edge>
    <edge id=":27154068_0" function="internal">
        <lane id=":27154068_0_0" index="0" disallow="tram rail_urban rail rail_electric ship" speed="9.86" length="14.74" shape="596.40,1615.54 593.34,1611.58 590.43,1608.88 587.66,1607.43 585.03,1607.23"/>
    </edge>
    <edge id=":27154068_1" function="internal">
        <lane id=":27154068_1_0" index="0" disallow="tram rail_urban rail rail_electric ship" speed="10.25" length="4.74" shape="599.04,1613.73 597.31,1609.32"/>
    </edge>
    <edge id=":27154068_6" function="internal">
        <lane id=":27154068_6_0" index="0" disallow="tram rail_urban rail rail_electric ship" speed="10.25" length="19.39" shape="597.31,1609.32 597.17,1608.97 598.00,1604.12 601.54,1599.18 607.78,1594.15"/>
    </edge>
    <edge id=":27154068_2" function="internal">
        <lane id=":27154068_2_0" index="0" disallow="tram rail_urban rail rail_electric ship" speed="8.39" length="15.81" shape="610.35,1600.12 605.50,1603.74 602.44,1606.92 601.17,1609.64 601.68,1611.93"/>
    </edge>
    <edge id=":27154068_3" function="internal">
        <lane id=":27154068_3_0" index="0" disallow="tram rail_urban rail rail_electric ship" speed="13.89" length="26.21" shape="609.06,1597.13 602.50,1600.94 595.78,1603.96 589.70,1606.09 585.03,1607.23"/>
    </edge>
    <edge id=":27154068_4" function="internal">
        <lane id=":27154068_4_0" index="0" disallow="tram rail_urban rail rail_electric ship" speed="13.89" length="25.21" shape="583.62,1600.97 590.98,1599.61 597.84,1597.99 603.64,1596.16 607.78,1594.15"/>
    </edge>
    <edge id=":27154068_5" function="internal">
        <lane id=":27154068_5_0" index="0" disallow="tram rail_urban rail rail_electric ship" speed="11.47" length="20.19" shape="584.33,1604.10 589.46,1603.92 594.06,1605.17 598.14,1607.83 601.68,1611.93"/>
    </edge>
    <edge id=":27154097_0" function="internal">
        <lane id=":27154097_0_0" index="0" disallow="tram rail_urban rail rail_electric ship" speed="13.45" length="9.11" shape="622.69,1669.98 622.92,1667.51 622.71,1665.81 622.10,1664.14 621.12,1661.81"/>
        <lane id=":27154097_0_1" index="1" disallow="tram rail_urban rail rail_electric ship" speed="13.89" length="9.11" shape="622.69,1669.98 623.45,1667.17 624.31,1665.21 624.71,1663.30 624.10,1660.64"/>
    </edge>
    <edge id=":27154097_2" function="internal">
        <lane id=":27154097_2_0" index="0" speed="13.89" length="10.60" shape="627.08,1659.47 627.78,1662.34 627.49,1664.50 626.71,1666.71 625.96,1669.75"/>
    </edge>
    <edge id=":27154097_3" function="internal">
        <lane id=":27154097_3_0" index="0" disallow="tram rail_urban rail rail_electric ship" speed="3.65" length="2.57" shape="627.08,1659.47 626.77,1660.88 626.17,1661.55 625.94,1661.52"/>
    </edge>
    <edge id=":27154097_4" function="internal">
        <lane id=":27154097_4_0" index="0" disallow="tram rail_urban rail rail_electric ship" speed="3.65" length="2.10" shape="625.94,1661.52 625.28,1661.47 624.10,1660.64"/>
    </edge>
    <edge id=":27431768_0" function="internal">
        <lane id=":27431768_0_0" index="0" speed="6.97" length="9.02" shape="994.58,919.67 992.20,920.05 990.37,921.08 989.11,922.75 988.40,925.06"/>
    </edge>
    <edge id=":27431768_1" function="internal">
        <lane id=":27431768_1_0" index="0" disallow="tram rail_urban rail rail_electric ship" speed="13.89" length="13.87" shape="994.50,916.47 980.63,916.67"/>
    </edge>
    <edge id=":27431768_2" function="internal">
        <lane id=":27431768_2_0" index="0" disallow="tram rail_urban rail rail_electric ship" speed="13.89" length="14.23" shape="980.60,910.27 985.04,910.73 988.29,911.80 991.14,912.85 994.42,913.27"/>
    </edge>
    <edge id=":27431768_3" function="internal">
        <lane id=":27431768_3_0" index="0" speed="8.13" length="5.48" shape="980.62,913.47 984.73,914.17 985.75,914.99"/>
    </edge>
    <edge id=":27431768_6" function="internal">
        <lane id=":27431768_6_0" index="0" speed="8.13" length="11.06" shape="985.75,914.99 987.40,916.34 988.62,919.97 988.40,925.06"/>
    </edge>
    <edge id=":27431768_4" function="internal">
        <lane id=":27431768_4_0" index="0" disallow="tram rail_urban rail rail_electric ship" speed="6.67" length="10.75" shape="985.24,924.54 985.43,921.08 984.73,918.62 983.13,917.14 980.63,916.67"/>
    </edge>
    <edge id=":27431768_5" function="internal">
        <lane id=":27431768_5_0" index="0" disallow="tram rail_urban rail rail_electric ship" speed="9.06" length="15.85" shape="985.24,924.54 986.49,919.68 988.44,916.18 991.08,914.04 994.42,913.27"/>
    </edge>
    <edge id=":27488683_0" function="internal">
        <lane id=":27488683_0_0" index="0" speed="9.82" length="5.60" shape="2196.90,1278.26 2195.27,1278.56 2194.12,1278.82 2193.12,1279.35 2191.91,1280.44"/>
    </edge>
    <edge id=":27488683_1" function="internal">
        <lane id=":27488683_1_0" index="0" speed="13.89" length="6.02" shape="2194.23,1274.99 2193.67,1276.69 2193.41,1277.94 2192.98,1279.07 2191.91,1280.44"/>
    </edge>
    <edge id=":27488683_2" function="internal">
        <lane id=":27488683_2_0" index="0" speed="13.89" length="4.32" shape="2187.31,1275.99 2187.91,1275.12 2188.04,1274.36 2188.06,1273.54 2188.35,1272.46"/>
        <lane id=":27488683_2_1" index="1" speed="13.89" length="4.32" shape="2189.61,1278.22 2190.45,1277.10 2190.72,1276.15 2190.87,1275.11 2191.29,1273.72"/>
    </edge>
    <edge id=":27508701_0" function="internal">
        <lane id=":27508701_0_0" index="0" speed="7.19" length="8.29" shape="1847.36,1439.27 1845.75,1437.09 1844.13,1435.63 1842.51,1434.90 1840.89,1434.90"/>
    </edge>
    <edge id=":27508701_1" function="internal">
        <lane id=":27508701_1_0" index="0" speed="9.68" length="17.34" shape="1847.36,1439.27 1845.98,1435.73 1846.18,1431.97 1847.97,1427.98 1851.33,1423.76"/>
    </edge>
    <edge id=":27508701_2" function="internal">
        <lane id=":27508701_2_0" index="0" speed="12.07" length="13.55" shape="1839.96,1430.57 1842.51,1430.12 1845.26,1428.83 1848.20,1426.71 1851.33,1423.76"/>
    </edge>
    <edge id=":2757390884_0" function="internal">
        <lane id=":2757390884_0_0" index="0" speed="13.89" length="8.03" shape="926.33,916.34 918.31,916.15"/>
    </edge>
    <edge id=":2757390884_1" function="internal">
        <lane id=":2757390884_1_0" index="0" disallow="tram rail_urban rail rail_electric ship" speed="3.65" length="2.34" shape="926.33,916.34 925.14,915.53 924.75,914.73"/>
    </edge>
    <edge id=":2757390884_4" function="internal">
        <lane id=":2757390884_4_0" index="0" disallow="tram rail_urban rail rail_electric ship" speed="3.65" length="2.34" shape="924.75,914.73 925.15,913.93 926.36,913.14"/>
    </edge>
    <edge id=":2757390884_2" function="internal">
        <lane id=":2757390884_2_0" index="0" disallow="tram rail_urban rail rail_electric ship" speed="13.89" length="8.31" shape="918.43,912.96 920.87,912.55 922.41,911.50 923.95,910.42 926.39,909.94"/>
        <lane id=":2757390884_2_1" index="1" disallow="tram rail_urban rail rail_electric ship" speed="13.89" length="8.31" shape="918.43,912.96 926.36,913.14"/>
    </edge>
    <edge id=":2967495891_0" function="internal">
        <lane id=":2967495891_0_0" index="0" speed="11.11" length="8.02" shape="2150.13,1232.48 2142.68,1229.53"/>
    </edge>
    <edge id=":2967495891_1" function="internal">
        <lane id=":2967495891_1_0" index="0" disallow="tram rail_urban rail rail_electric ship" speed="11.11" length="8.27" shape="2143.91,1226.57 2146.32,1227.04 2148.12,1226.58 2149.93,1226.10 2152.37,1226.48"/>
        <lane id=":2967495891_1_1" index="1" disallow="tram rail_urban rail rail_electric ship" speed="11.11" length="8.27" shape="2143.91,1226.57 2151.25,1229.48"/>
    </edge>
    <edge id=":2994301189_0" function="internal">
        <lane id=":2994301189_0_0" index="0" speed="11.11" length="8.02" shape="1450.47,1998.05 1449.42,1990.10"/>
    </edge>
    <edge id=":2994301189_1" function="internal">
        <lane id=":2994301189_1_0" index="0" disallow="tram rail_urban rail rail_electric ship" speed="11.11" length="8.28" shape="1452.60,1989.74 1453.37,1992.07 1454.64,1993.42 1455.94,1994.77 1456.80,1997.09"/>
        <lane id=":2994301189_1_1" index="1" disallow="tram rail_urban rail rail_electric ship" speed="11.11" length="8.28" shape="1452.60,1989.74 1453.64,1997.57"/>
    </edge>
    <edge id=":2994395095_0" function="internal">
        <lane id=":2994395095_0_0" index="0" speed="13.89" length="7.52" shape="895.03,1912.18 893.51,1904.81"/>
    </edge>
    <edge id=":2994395095_1" function="internal">
        <lane id=":2994395095_1_0" index="0" speed="13.89" length="8.23" shape="896.61,1904.04 897.68,1906.30 899.10,1907.56 900.45,1908.82 901.34,1911.12"/>
        <lane id=":2994395095_1_1" index="1" speed="13.89" length="8.23" shape="896.61,1904.04 898.19,1911.65"/>
    </edge>
    <edge id=":3016858866_0" function="internal">
        <lane id=":3016858866_0_0" index="0" speed="13.89" length="8.32" shape="2223.01,1206.68 2222.57,1209.11 2223.04,1210.92 2223.53,1212.73 2223.15,1215.19"/>
        <lane id=":3016858866_0_1" index="1" speed="13.89" length="8.32" shape="2223.01,1206.68 2220.15,1214.08"/>
    </edge>
    <edge id=":3016858866_2" function="internal">
        <lane id=":3016858866_2_0" index="0" speed="13.89" length="8.03" shape="2217.15,1212.96 2220.04,1205.48"/>
    </edge>
    <edge id=":3128832776_0" function="internal">
        <lane id=":3128832776_0_0" index="0" speed="7.37" length="8.16" shape="1863.68,736.04 1864.57,738.10 1865.82,739.64 1867.42,740.66 1869.39,741.16"/>
    </edge>
    <edge id=":3128832776_1" function="internal">
        <lane id=":3128832776_1_0" index="0" disallow="tram rail_urban rail rail_electric ship" speed="6.55" length="7.79" shape="1857.92,743.54 1859.60,742.31 1860.61,740.81 1860.95,739.03 1860.62,736.98"/>
    </edge>
    <edge id=":3128832776_2" function="internal">
        <lane id=":3128832776_2_0" index="0" speed="13.89" length="11.97" shape="1857.92,743.54 1860.87,742.09 1863.44,741.25 1866.12,740.96 1869.39,741.16"/>
    </edge>
    <edge id=":3893387685_0" function="internal">
        <lane id=":3893387685_0_0" index="0" speed="13.89" length="8.03" shape="892.39,2031.08 891.78,2039.09"/>
    </edge>
    <edge id=":3893387685_1" function="internal">
        <lane id=":3893387685_1_0" index="0" disallow="tram rail_urban rail rail_electric ship" speed="13.89" length="8.36" shape="888.59,2038.82 888.29,2036.34 887.32,2034.74 886.33,2033.13 886.00,2030.65"/>
        <lane id=":3893387685_1_1" index="1" disallow="tram rail_urban rail rail_electric ship" speed="13.89" length="8.36" shape="888.59,2038.82 889.19,2030.87"/>
    </edge>
    <edge id=":3893389385_0" function="internal">
        <lane id=":3893389385_0_0" index="0" disallow="tram rail_urban rail rail_electric ship" speed="13.89" length="8.38" shape="975.96,1980.42 973.46,1980.51 971.77,1981.34 970.08,1982.19 967.57,1982.30"/>
        <lane id=":3893389385_0_1" index="1" disallow="tram rail_urban rail rail_electric ship" speed="13.89" length="8.38" shape="975.96,1980.42 968.07,1979.14"/>
    </edge>
    <edge id=":3893389385_2" function="internal">
        <lane id=":3893389385_2_0" index="0" speed="13.89" length="8.02" shape="968.57,1975.98 976.48,1977.26"/>
    </edge>
    <edge id=":3893391288_0" function="internal">
        <lane id=":3893391288_0_0" index="0" speed="13.89" length="7.96" shape="818.93,1945.53 811.40,1942.94"/>
    </edge>
    <edge id=":3893391288_1" function="internal">
        <lane id=":3893391288_1_0" index="0" disallow="tram rail_urban rail rail_electric ship" speed="13.89" length="8.41" shape="812.42,1939.91 814.92,1940.23 816.74,1939.68 818.56,1939.15 821.05,1939.49"/>
        <lane id=":3893391288_1_1" index="1" disallow="tram rail_urban rail rail_electric ship" speed="13.89" length="8.41" shape="812.42,1939.91 819.99,1942.51"/>
    </edge>
    <edge id=":3893395885_0" function="internal">
        <lane id=":3893395885_0_0" index="0" disallow="tram rail_urban rail rail_electric ship" speed="13.89" length="7.64" shape="521.66,1598.34 514.48,1595.74"/>
    </edge>
    <edge id=":3893395885_1" function="internal">
        <lane id=":3893395885_1_0" index="0" disallow="tram rail_urban rail rail_electric ship" speed="13.89" length="8.30" shape="515.47,1592.70 517.96,1592.99 519.78,1592.45 521.58,1591.96 524.02,1592.39"/>
        <lane id=":3893395885_1_1" index="1" disallow="tram rail_urban rail rail_electric ship" speed="13.89" length="8.30" shape="515.47,1592.70 522.84,1595.36"/>
    </edge>
    <edge id=":3893395886_0" function="internal">
        <lane id=":3893395886_0_0" index="0" disallow="tram rail_urban rail rail_electric ship" speed="13.89" length="8.01" shape="663.09,1540.06 661.79,1542.02 661.57,1543.80 661.40,1545.62 660.22,1547.71"/>
        <lane id=":3893395886_0_1" index="1" disallow="tram rail_urban rail rail_electric ship" speed="13.89" length="8.01" shape="663.09,1540.06 657.82,1545.59"/>
    </edge>
    <edge id=":3893395886_2" function="internal">
        <lane id=":3893395886_2_0" index="0" speed="13.89" length="7.89" shape="655.42,1543.47 660.86,1537.76"/>
    </edge>
    <edge id=":4095650775_0" function="internal">
        <lane id=":4095650775_0_0" index="0" speed="13.89" length="8.33" shape="2194.83,766.09 2193.14,764.22 2191.41,763.43 2189.72,762.62 2188.15,760.68"/>
        <lane id=":4095650775_0_1" index="1" speed="13.89" length="8.33" shape="2194.83,766.09 2190.99,759.20"/>
    </edge>
    <edge id=":4095650775_2" function="internal">
        <lane id=":4095650775_2_0" index="0" speed="13.89" length="7.70" shape="2193.82,757.72 2197.58,764.45"/>
    </edge>
    <edge id=":4095650776_0" function="internal">
        <lane id=":4095650776_0_0" index="0" disallow="tram rail_urban rail rail_electric ship" speed="13.89" length="8.41" shape="1048.15,915.07 1045.70,915.66 1044.19,916.81 1042.69,917.95 1040.23,918.51"/>
        <lane id=":4095650776_0_1" index="1" disallow="tram rail_urban rail rail_electric ship" speed="13.89" length="8.41" shape="1048.15,915.07 1040.15,915.31"/>
    </edge>
    <edge id=":4095650776_2" function="internal">
        <lane id=":4095650776_2_0" index="0" speed="13.89" length="7.98" shape="1040.07,912.11 1048.05,911.88"/>
    </edge>
    <edge id=":4095650776_3" function="internal">
        <lane id=":4095650776_3_0" index="0" disallow="tram rail_urban rail rail_electric ship" speed="3.65" length="2.34" shape="1040.07,912.11 1041.29,912.88 1041.71,913.67"/>
    </edge>
    <edge id=":4095650776_4" function="internal">
        <lane id=":4095650776_4_0" index="0" disallow="tram rail_urban rail rail_electric ship" speed="3.65" length="2.34" shape="1041.71,913.67 1041.33,914.48 1040.15,915.31"/>
    </edge>
    <edge id=":419228874_0" function="internal">
        <lane id=":419228874_0_0" index="0" disallow="tram rail_urban rail rail_electric ship" speed="13.89" length="0.10" shape="2203.15,1276.96 2203.15,1276.96"/>
    </edge>
    <edge id=":4225226966_0" function="internal">
        <lane id=":4225226966_0_0" index="0" disallow="tram rail_urban rail rail_electric ship" speed="8.11" length="12.17" shape="1863.74,1453.09 1863.06,1450.57 1861.37,1448.58 1858.65,1447.11 1854.91,1446.17"/>
    </edge>
    <edge id=":4225226966_1" function="internal">
        <lane id=":4225226966_1_0" index="0" speed="9.70" length="10.41" shape="1873.00,1444.69 1870.29,1447.30 1868.37,1449.53 1867.25,1451.40 1866.93,1452.90"/>
    </edge>
    <edge id=":4225226966_2" function="internal">
        <lane id=":4225226966_2_0" index="0" disallow="tram rail_urban rail rail_electric ship" speed="12.94" length="18.58" shape="1873.00,1444.69 1870.32,1446.17 1866.41,1446.92 1861.27,1446.91 1854.91,1446.17"/>
    </edge>
    <edge id=":4225226967_0" function="internal">
        <lane id=":4225226967_0_0" index="0" speed="13.89" length="7.92" shape="1864.07,1513.68 1863.78,1516.02 1863.59,1517.62 1863.30,1519.20 1862.71,1521.48"/>
    </edge>
    <edge id=":4225226967_1" function="internal">
        <lane id=":4225226967_1_0" index="0" allow="bus" speed="13.89" length="8.34" shape="1859.50,1521.10 1859.62,1518.68 1858.82,1517.01 1857.92,1515.31 1857.73,1512.82"/>
        <lane id=":4225226967_1_1" index="1" speed="13.89" length="8.34" shape="1859.50,1521.10 1860.09,1518.81 1860.40,1517.22 1860.60,1515.61 1860.90,1513.25"/>
    </edge>
    <edge id=":4225765281_0" function="internal">
        <lane id=":4225765281_0_0" index="0" speed="6.51" length="10.24" shape="2086.01,606.55 2083.33,604.81 2080.99,604.30 2079.01,605.02 2077.38,606.98"/>
    </edge>
    <edge id=":4225765281_1" function="internal">
        <lane id=":4225765281_1_0" index="0" disallow="tram rail_urban rail rail_electric ship" speed="9.10" length="15.77" shape="2088.04,604.08 2084.48,600.56 2082.42,597.14 2081.86,593.80 2082.81,590.55"/>
    </edge>
    <edge id=":4225765281_2" function="internal">
        <lane id=":4225765281_2_0" index="0" speed="7.02" length="9.01" shape="2088.47,593.54 2087.64,595.81 2087.63,597.90 2088.44,599.84 2090.08,601.61"/>
    </edge>
    <edge id=":4225765281_3" function="internal">
        <lane id=":4225765281_3_0" index="0" speed="13.89" length="17.06" shape="2085.64,592.05 2077.38,606.98"/>
    </edge>
    <edge id=":4225765281_4" function="internal">
        <lane id=":4225765281_4_0" index="0" disallow="tram rail_urban rail rail_electric ship" speed="13.89" length="17.30" shape="2071.81,603.82 2074.99,599.21 2078.03,596.03 2080.70,593.44 2082.81,590.55"/>
    </edge>
    <edge id=":4225765281_5" function="internal">
        <lane id=":4225765281_5_0" index="0" speed="8.65" length="7.17" shape="2074.60,605.40 2077.96,600.93 2079.33,600.14"/>
    </edge>
    <edge id=":4225765281_6" function="internal">
        <lane id=":4225765281_6_0" index="0" speed="8.65" length="11.81" shape="2079.33,600.14 2081.66,598.81 2085.70,599.03 2090.08,601.61"/>
    </edge>
    <edge id=":4235448847_0" function="internal">
        <lane id=":4235448847_0_0" index="0" speed="7.26" length="8.75" shape="1887.63,756.53 1885.32,757.25 1883.58,758.44 1882.42,760.09 1881.83,762.21"/>
    </edge>
    <edge id=":4235448847_1" function="internal">
        <lane id=":4235448847_1_0" index="0" speed="7.73" length="7.73" shape="1880.65,749.53 1882.50,751.40 1884.17,752.66 1885.69,753.33 1887.04,753.39"/>
    </edge>
    <edge id=":4235448847_2" function="internal">