<routes xmlns:xsi="http://www.w3.org/2001/XMLSchema-instance" xsi:noNamespaceSchemaLocation="http://sumo.dlr.de/xsd/routes_file.xsd">
    
        <route edges="-420074045#2 gneE19 407511303#0 gneE17 -gneE16 gneE14 gneE15 -gneE11 gneE10 -gneE9 -gneE8 gneE4 -gneE2 -gneE1 -gneE42 gneE41 gneE39 6272852#3 gneE38 -gneE41 gneE42 gneE1" id="-420074045#2" />
    
    
        <route edges="-6268492#1 -gneE28 -gneE23 385995453#0 4427539#1" id="-6268492#1" />
    
    
        <route edges="4427539#1 -gneE20 34100169#0 -420074045#2 gneE19 407511303#0 -407511303#2 -gneE19 385995924 -34100169#2 gneE20 -4427539#2 -385995453#1 gneE23 gneE28 6268497#1 -gneE47" id="4427539#1" />
    
    
        <route edges="385995924 -34100169#2 34100169#0 -420074045#2 gneE19 407511303#0 gneE17 -gneE16 gneE14 gneE15 -gneE11" id="385995924" />
    
    
        <route edges="-gneE28 -gneE23 385995453#0 4427539#1 -gneE20 34100169#0 -420074045#2 gneE19 407511303#0 -407511303#2 -gneE19 385995924 -34100169#2 gneE20 -4427539#2 -385995453#1 gneE23 gneE28 -422856036#1 gneE32" id="-gneE28" />
    
    
        <route edges="gneE39 6272852#3 gneE38 -gneE41 gneE42 gneE1 gneE2 -gneE4 gneE8 gneE9 -gneE10 gneE11 gneE13 gneE14 gneE15 -gneE11" id="gneE39" />
    
    
        <route edges="gneE21 -gneE26" id="gneE21" />
    
    
        <route edges="4487775#1 4487775#3 -gneE1 -gneE42 gneE41 gneE39 -gneE36 -gneE35 -gneE31 gneE29" id="4487775#1" />
    
    
        <route edges="gneE1 gneE2 -gneE4 gneE8 gneE9 -gneE10 gneE11 gneE13 gneE16 -gneE17 -407511303#2 -gneE19 385995924 -34100169#2 gneE20 -4427539#2 -385995453#1" id="gneE1" />
    
    
        <route edges="gneE26 -gneE21 -385995453#1 gneE23 gneE28 -422856036#1 gneE32 gneE35 gneE36 6272852#3 gneE38 -gneE41" id="gneE26" />
    
    
        <route edges="gneE11 gneE13 gneE14 gneE15 -gneE11 gneE10 -gneE9 -gneE8 gneE4 -gneE2 -gneE1 -gneE42 gneE41" id="gneE11" />
    
    
        <route edges="-gneE8 gneE4 -gneE2 -gneE1 -gneE42 gneE41 gneE39 6272852#3 gneE38 -gneE41 gneE42 gneE1 gneE2 -gneE4 gneE8 gneE9 -gneE10 gneE11 gneE13 gneE16 -gneE17 -407511303#2 -gneE19" id="-gneE8" />
    
    
        <route edges="gneE33 -gneE16 gneE14" id="gneE33" />
    
    
        <route edges="-gneE31 gneE29 -6268492#1 6268497#1 -gneE47" id="-gneE31" />
    
    
        <route edges="gneE30 gneE31 gneE35 gneE36 6272852#3 gneE38 -gneE41 gneE42 gneE1 gneE2 4487590#0 -gneE3" id="gneE30" />
    
    
        <route edges="gneE29 -6268492#1 -422856036#1 gneE32 gneE35 gneE36 6272852#3 gneE38 -gneE41 gneE42" id="gneE29" />
    
    
        <route edges="-gneE29 gneE31 gneE35 gneE36 6272852#3 gneE38 -gneE41 gneE42 gneE1 gneE2 -gneE4 gneE8 gneE9 -gneE10 gneE11 gneE13 gneE14 gneE15 -gneE11 gneE10 -gneE9 -gneE8 gneE4 -gneE2 -gneE1 -gneE42" id="-gneE29" />
    
    
        <route edges="gneE34 gneE33 -gneE16 gneE14 gneE15 gneE13 gneE16" id="gneE34" />
    
    
        <route edges="gneE34 gneE33 -gneE17 -407511303#2 -gneE19 385995924 -34100169#2 gneE20 -4427539#2 -385995453#1 gneE23 gneE28 6268492#0 -gneE29" id="gneE34" />
    
    
        <route edges="-gneE23 385995453#0 4427539#1 -gneE20 34100169#0 -420074045#2 gneE19 407511303#0 gneE17 -gneE16 gneE14 gneE15 -gneE11 gneE10" id="-gneE23" />
    
    
        <route edges="-gneE4 gneE8 gneE9 -gneE10 gneE11 gneE13 gneE16 -gneE17" id="-gneE4" />
    
    
        <route edges="-568720497 -gneE10 gneE11 gneE13 gneE16 -gneE17 -407511303#2 -gneE19" id="-568720497" />
    
    
        <route edges="-gneE41 gneE42 gneE1 gneE2 -gneE4 gneE8 gneE9 -gneE10 gneE11 gneE13 gneE14 gneE15 -gneE11 gneE10 -gneE9 -gneE8 gneE4 -gneE2 -gneE1 -gneE42 gneE41 gneE39 -gneE36 -gneE35 -gneE31 gneE29" id="-gneE41" />
    
    
        <route edges="gneE42 gneE1 gneE2 -gneE4 gneE8 gneE9 -gneE10 gneE11 gneE13" id="gneE42" />
    
    
        <route edges="gneE41 gneE39 6272852#3" id="gneE41" />
    
    
        <route edges="-4487590#0 -gneE2 -gneE1 -gneE42 gneE41 gneE39 -gneE36 -gneE35 -gneE32 405683165 -gneE28 -gneE23 385995453#0" id="-4487590#0" />
    
    
        <route edges="-6268492#1 -422856036#1 gneE32 gneE35 gneE36 6272852#3 gneE38 -gneE41 gneE42 gneE1 gneE2" id="-6268492#1" />
    
    
        <route edges="385995453#0 4427539#1 -gneE20 34100169#0 -420074045#2 gneE19 407511303#0 gneE17 -gneE16 gneE14 gneE15 -gneE11 gneE10" id="385995453#0" />
    
    
        <route edges="-gneE36 -gneE35 -gneE32 405683165 -gneE28 -gneE23 385995453#0 4427539#1 -gneE20 34100169#0 -420074045#2 gneE19" id="-gneE36" />
    
    
        <route edges="gneE26 -gneE21 4427539#1 -gneE20 34100169#0 4427534#0 385995923" id="gneE26" />
    
    
        <route edges="gneE5 -gneE2 -gneE1 -gneE42 gneE41 gneE39 6272852#3 gneE38 -gneE41 gneE42 gneE1 gneE2 -gneE5 -gneE7" id="gneE5" />
    
    
        <route edges="660768672#2 gneE29 -6268492#1 -gneE28 -gneE23 385995453#0 4427539#1 -gneE20 34100169#0 -420074045#2 gneE19 -407511291#5 407511291#3" id="660768672#2" />
    
    
        <route edges="-gneE9 -gneE8" id="-gneE9" />
    
    
        <route edges="-672687133 gneE15 -gneE11 gneE10 -gneE9 -gneE8 gneE4 -gneE2 -gneE1 -gneE42 gneE41 gneE39 -gneE36 -gneE35 -gneE32 405683165 -gneE28 -gneE23" id="-672687133" />
    
    
        <route edges="gneE14 gneE15 gneE13 gneE16 -gneE17 -407511303#2 -gneE19 385995924 4427534#0 385995923" id="gneE14" />
    
    
        <route edges="gneE4 -gneE2 -gneE1 -gneE42 gneE41 gneE39 -gneE36 -gneE35 -gneE32 405683165 6268492#0 -gneE29 gneE31 gneE35" id="gneE4" />
    
    
        <route edges="gneE23 gneE28 -422856036#1 405683165 -gneE28 -gneE23 385995453#0 4427539#1 -gneE20 34100169#0 -420074045#2" id="gneE23" />
    
    
        <route edges="385995453#0 4427539#1 -gneE20 34100169#0 -420074045#2 gneE19 407511303#0 -407511303#2 -gneE19 385995924 -34100169#2 gneE20 -4427539#2 -385995453#1 gneE23 gneE28" id="385995453#0" />
    
    
        <route edges="385995453#0 4427539#1 -gneE20 34100169#0 -420074045#2 gneE19 407511303#0 gneE17 -gneE16 gneE14 gneE15 -gneE11 gneE10 -gneE9 -gneE8 gneE4" id="385995453#0" />
    
    
        <route edges="gneE10 -gneE9 -gneE8 gneE4 -gneE2 -gneE1 -gneE42 gneE41 gneE39 6272852#3 gneE38 -gneE41 gneE42 gneE1" id="gneE10" />
    
    
        <route edges="gneE7 gneE5 -gneE4 gneE8 gneE9 -gneE10 gneE11 gneE13 gneE16 -gneE17 -407511303#2 -gneE19 385995924 -34100169#2 gneE20" id="gneE7" />
    
    
        <route edges="gneE9 -gneE10 gneE11 gneE13 gneE16 -gneE33 -gneE34" id="gneE9" />
    
    
        <route edges="-gneE9 -gneE8 gneE4 -gneE2 -gneE1 -gneE42 gneE41 gneE39 6272852#3 gneE38 -gneE41 gneE42 gneE1 gneE2 -gneE4" id="-gneE9" />
    
    
        <route edges="gneE41 gneE39 -gneE36 -gneE35 -gneE32 405683165 6268492#0 -gneE29 gneE31" id="gneE41" />
    
    
        <route edges="gneE41 gneE39 -gneE36 -gneE35 -gneE32 405683165 -gneE28 -gneE23 385995453#0 gneE21" id="gneE41" />
    
    
        <route edges="4427534#0 385995923" id="4427534#0" />
    
    
        <route edges="-407511303#2 -407511291#5 407511291#3 407511303#0 gneE17 -gneE16 gneE14 gneE15 -gneE11 gneE10 -gneE9 -gneE8 gneE4 -gneE2 -gneE1 -gneE42 gneE41 gneE39" id="-407511303#2" />
    
    
        <route edges="gneE31 gneE35 gneE36 6272852#3 gneE38 -gneE41 gneE42 gneE1 gneE2 -gneE4 gneE8 gneE9 -gneE10 gneE11 gneE13 gneE14 gneE15 -gneE11 gneE10 -gneE9 -gneE8 gneE4 -gneE2 -gneE1 -gneE42" id="gneE31" />
    
    
        <route edges="gneE10 -gneE9 -gneE8 gneE4 -gneE2 -gneE1 -gneE42 gneE41 gneE39 -gneE36 -gneE35 -gneE32 405683165 -gneE28 -gneE23 385995453#0 4427539#1 -gneE20" id="gneE10" />
    
    
        <route edges="-672687133 gneE15 gneE13 gneE16 -gneE33 -gneE34" id="-672687133" />
    
    
        <route edges="-gneE1 -gneE42 gneE41 gneE39 -gneE36 -gneE35 -gneE32 405683165 6268492#0" id="-gneE1" />
    
    
        <route edges="-gneE10 gneE11 gneE13 gneE14 gneE15 -gneE11 gneE10 -gneE9 -gneE8 gneE4 -gneE5 -gneE7" id="-gneE10" />
    
    
        <route edges="-gneE36 -gneE35 -gneE32 405683165 -gneE28 -gneE23 385995453#0 4427539#1" id="-gneE36" />
    
    
        <route edges="-gneE20 34100169#0 -420074045#2 gneE19 407511303#0 gneE17 -gneE16 gneE14 gneE15 -gneE11 gneE10 -gneE9 -gneE8 gneE4 -gneE2 -gneE1 -gneE42 gneE41 gneE39 6272852#3 gneE46" id="-gneE20" />
    
    
        <route edges="4487775#3" id="4487775#3" />
    
    
        <route edges="gneE16 -gneE17 -407511303#2 -gneE19 385995924 -34100169#2 34100169#0" id="gneE16" />
    
    
        <route edges="385995289#0 4427539#1" id="385995289#0" />
    
    
        <route edges="-gneE23 385995453#0 4427539#1 -gneE20 34100169#0 -420074045#2 gneE19 407511303#0 -407511303#2 -gneE19 385995924 -34100169#2 gneE20" id="-gneE23" />
    
    
        <route edges="385995289#0 -385995453#1 gneE23 gneE28 -422856036#1 gneE32 -gneE31 gneE29" id="385995289#0" />
    
    
        <route edges="-gneE36 -gneE35 -gneE32 405683165 6268492#0 -gneE29 gneE31 gneE35 gneE36 6272852#3 gneE38 -gneE41 gneE42 gneE1 gneE2 -gneE4 gneE8 gneE9 -gneE10 gneE11 gneE13 gneE14 gneE15 -gneE11" id="-gneE36" />
    
    
        <route edges="gneE23 gneE28 -422856036#1 405683165 -gneE28 -gneE23 385995453#0 4427539#1 -gneE20 34100169#0 -420074045#2 gneE19 407511303#0 gneE17 -gneE33 -gneE34" id="gneE23" />
    
    
        <route edges="-gneE8 gneE4 -gneE2 -gneE1 -gneE42 gneE41 gneE39 -gneE36 -gneE35 -gneE32 405683165 -gneE28 -gneE23 385995453#0 -385995289#1 -gneE27" id="-gneE8" />
    
    
        <route edges="gneE5 -gneE2 -gneE1 -gneE42 gneE41 gneE39 -gneE36 -gneE35 -gneE32 405683165 -gneE28 -gneE23 385995453#0 -385995289#1" id="gneE5" />
    
    
        <route edges="-gneE35 -gneE32 405683165 -gneE28 -gneE23 385995453#0 4427539#1 -gneE20 34100169#0 -420074045#2 gneE19 407511303#0" id="-gneE35" />
    
    
        <route edges="gneE27 385995289#0 -385995453#1" id="gneE27" />
    
    
        <route edges="407511291#3 407511303#0 gneE17 -gneE16 gneE14 gneE15 -gneE11 gneE10 -gneE9 -gneE8 gneE4 -gneE2 -gneE1 -gneE42" id="407511291#3" />
    
    
        <route edges="-gneE20 34100169#0 -420074045#2 gneE19 407511303#0 gneE17 -gneE16 gneE14 gneE15 -gneE11 gneE10 -gneE9 -gneE8 gneE4 4487590#0 -gneE3" id="-gneE20" />
    
    
        <route edges="gneE32 gneE35 gneE36 6272852#3 gneE38 -gneE41 gneE42 gneE1 gneE2 -gneE4 gneE8 gneE9 -gneE10" id="gneE32" />
    
    
        <route edges="-4427534#1 -34100169#2 gneE20 -4427539#2 -385995453#1 gneE23 gneE28 6268492#0 -gneE29 -gneE30" id="-4427534#1" />
    
    
        <route edges="-gneE32 405683165 6268492#0 -gneE29 gneE31 gneE35 gneE36 6272852#3 gneE38 -gneE41 gneE42 gneE1 gneE2" id="-gneE32" />
    
    
        <route edges="gneE14 gneE15 gneE13 gneE16" id="gneE14" />
    
    
        <route edges="-34100169#2 gneE20 -4427539#2 -385995453#1 gneE23 gneE28 -422856036#1 gneE32 gneE35 gneE36 6272852#3" id="-34100169#2" />
    
    
        <route edges="385995453#0 4427539#1 -gneE20 34100169#0 -420074045#2 gneE19" id="385995453#0" />
    
    
        <route edges="gneE27 385995289#0 -385995453#1 gneE23 gneE28 -422856036#1 gneE32 gneE35 gneE36 6272852#3 gneE38 -gneE41 gneE42 gneE1 gneE2 -gneE5 -gneE7" id="gneE27" />
    
    
        <route edges="gneE27 385995289#0 -385995453#1 gneE23 gneE28 -422856036#1 gneE32 gneE35 gneE36 6272852#3 gneE38 -gneE41 gneE42 gneE1 gneE2 4487590#0 -gneE3" id="gneE27" />
    
    
        <route edges="-4427539#2 -385995453#1 gneE23 gneE28 -422856036#1 gneE32 gneE35 gneE36 6272852#3 gneE38 gneE39 -gneE36 -gneE35" id="-4427539#2" />
    
    
        <route edges="gneE38 -gneE41 gneE42 gneE1 gneE2 -gneE4 gneE8 gneE9 -gneE10 gneE11 gneE13 gneE16 -gneE17 -407511303#2 -gneE19 385995924 -34100169#2 gneE20 -4427539#2" id="gneE38" />
    
    
        <route edges="405683165 6268492#0 -gneE29 gneE31 gneE35 gneE36 6272852#3 gneE38 -gneE41 gneE42 gneE1 gneE2 -gneE5 -gneE7" id="405683165" />
    
    
        <route edges="gneE10 -gneE9 -gneE8 gneE4 -gneE2 -gneE1 -gneE42 gneE41 gneE39 6272852#3 gneE38 -gneE41 gneE42 gneE1 gneE2 -gneE4 gneE8 gneE9 -gneE10 gneE11 gneE13 gneE16 -gneE17 -407511303#2 -407511291#5" id="gneE10" />
    
    
        <route edges="gneE1 gneE2 -gneE4 gneE8 gneE9 -gneE10 gneE11 gneE13 gneE14" id="gneE1" />
    
    
        <route edges="-gneE28 -gneE23 385995453#0 4427539#1 -gneE20 34100169#0 -420074045#2 gneE19 407511303#0 gneE17 -gneE33 -gneE34" id="-gneE28" />
    
    
        <route edges="gneE2 -gneE4 gneE8 gneE9 -gneE10 gneE11 gneE13 gneE14 gneE15 -gneE11 gneE10 -gneE9 -gneE8 gneE4 -gneE2 -gneE1 -gneE42 gneE41 gneE39 -gneE36 -gneE35 -gneE32 405683165 6268497#1" id="gneE2" />
    
    
        <route edges="gneE47 -6268497#2 -422856036#1 gneE32 gneE35 gneE36 6272852#3 gneE38 -gneE41 gneE42 gneE1 gneE2 -gneE4 gneE8 gneE9 -gneE10 gneE11" id="gneE47" />
    
    
        <route edges="-gneE11 gneE10 -gneE9 -gneE8 gneE4 -gneE2 -gneE1 -gneE42 gneE41 gneE39 6272852#3 gneE38 -gneE41 gneE42 gneE1 gneE2 -gneE4 gneE8 gneE9 -gneE10 gneE11 gneE13 gneE16 -gneE17 -407511303#2 -407511291#5 407511291#3" id="-gneE11" />
    
    
        <route edges="gneE17 -gneE16 gneE14 gneE15 -gneE11 gneE10 -gneE9 -gneE8 gneE4 -gneE2 -gneE1 -gneE42 gneE41 gneE39 -gneE36 -gneE35 -gneE32" id="gneE17" />
    
    
        <route edges="407511291#3 -gneE19 385995924 -34100169#2 gneE20 -4427539#2 -385995289#1 -gneE27" id="407511291#3" />
    
    
        <route edges="-4427539#2 -385995453#1 gneE23 gneE28 -422856036#1" id="-4427539#2" />
    
    
        <route edges="-gneE28 -gneE23 385995453#0 4427539#1 -gneE20 34100169#0 -420074045#2 gneE19 407511303#0 gneE17 -gneE16 gneE14 gneE15 -gneE11 gneE10 -gneE9 -gneE8 gneE4 -gneE2 -gneE1 -gneE42 gneE41 gneE39 6272852#3" id="-gneE28" />
    
    
        <route edges="-422856036#1 405683165 6268492#0 -gneE29 -gneE30" id="-422856036#1" />
    
    
        <route edges="gneE47 -6268497#2 -422856036#1 gneE32 gneE35 gneE36 6272852#3 gneE38 -gneE41" id="gneE47" />
    
    
        <route edges="gneE30 gneE31 gneE35 gneE36 6272852#3 gneE38 -gneE41 gneE42 gneE1 gneE2 -gneE4 gneE8 gneE9 -gneE10 gneE11 gneE13 gneE14 gneE15 -gneE11 gneE10 -gneE9 -gneE8 gneE4 -gneE2 -gneE1" id="gneE30" />
    
    
        <route edges="gneE7 4487775#1" id="gneE7" />
    
    
        <route edges="gneE39 6272852#3 gneE38 -gneE41 gneE42 gneE1 gneE2 -gneE4 gneE8 gneE9 -gneE10 gneE11 gneE13 gneE16 -gneE33" id="gneE39" />
    
    
        <route edges="385995289#0 4427539#1 -gneE20 34100169#0 -420074045#2 gneE19 407511303#0 gneE17 -gneE16 gneE14 gneE15 -gneE11 gneE10 -gneE9 -gneE8" id="385995289#0" />
    
    
        <route edges="-34100169#2 34100169#0 -420074045#2 gneE19 407511303#0 gneE17 -gneE16 gneE14 gneE15 -gneE11 gneE10 -gneE9" id="-34100169#2" />
    
    
        <route edges="gneE39 -gneE36 -gneE35 -gneE32 405683165 6268492#0 -gneE29 gneE31" id="gneE39" />
    
    
        <route edges="-385995923 -4427534#1 -420074045#2 gneE19 407511303#0 gneE17 -gneE16 gneE14 gneE15 gneE13 gneE16" id="-385995923" />
    
    
        <route edges="-gneE42 gneE41 gneE39 -gneE36 -gneE35 -gneE32 405683165 -gneE28 -gneE23 385995453#0 4427539#1" id="-gneE42" />
    
    
        <route edges="-422856036#1 405683165 -gneE28 -gneE23 385995453#0 4427539#1 -gneE20 34100169#0 -420074045#2 gneE19 407511303#0 -407511303#2 -gneE19 385995924 -34100169#2" id="-422856036#1" />
    
    
        <route edges="-gneE41 gneE42 gneE1 gneE2 -gneE4 gneE8 gneE9 -gneE10 gneE11 gneE13 gneE16 -gneE33 -gneE34" id="-gneE41" />
    
    
        <route edges="-gneE20 34100169#0 -420074045#2 gneE19" id="-gneE20" />
    
    
        <route edges="-gneE41 gneE42" id="-gneE41" />
    
    
        <route edges="gneE4 -gneE2 -gneE1 -gneE42 gneE41 gneE39 6272852#3 gneE38 -gneE41 gneE42 gneE1 gneE2 -gneE4 gneE8 gneE9 -gneE10 gneE11 gneE13 gneE16 -gneE17 -407511303#2 -407511291#5 407511291#3 407511303#0 gneE17" id="gneE4" />
    
    
        <route edges="-422856036#1 gneE32 -gneE31" id="-422856036#1" />
    
    
        <route edges="-gneE1 -gneE42" id="-gneE1" />
    
    
        <route edges="-34100169#2 34100169#0 -420074045#2 gneE19 407511303#0 gneE17 -gneE16 gneE14 gneE15 -gneE11 gneE10 422850701#1" id="-34100169#2" />
    
    
        <route edges="407511291#3 -gneE19 385995924 -34100169#2 gneE20 -4427539#2 -385995453#1" id="407511291#3" />
    
    
        <route edges="gneE10 -gneE9 -gneE8 gneE4 -gneE2 -gneE1 -gneE42 gneE41 gneE39 -gneE36 -gneE35 -gneE31" id="gneE10" />
    
    
        <route edges="-gneE10 gneE11 gneE13 gneE16 -gneE17 -407511303#2 -407511291#5 407511291#3 407511303#0 gneE17" id="-gneE10" />
    
    
        <route edges="gneE39 6272852#3 gneE38 -gneE41 gneE42 gneE1 gneE2 -gneE4 gneE8 gneE9 -gneE10 gneE11 gneE13 gneE16 -gneE17 -407511303#2 -gneE19 385995924 -34100169#2 gneE20 -4427539#2 -385995453#1 gneE23 gneE28" id="gneE39" />
    
    
        <route edges="-385995453#1 gneE23 gneE28 -422856036#1 gneE32 gneE35 gneE36 6272852#3 gneE38 gneE39 -gneE36 -gneE35" id="-385995453#1" />
    
    
        <route edges="-gneE21 -385995453#1" id="-gneE21" />
    
    
        <route edges="-gneE11 gneE10 -gneE9 -gneE8 gneE4 -gneE2 -gneE1 -gneE42 gneE41 gneE39 -gneE36 -gneE35 -gneE32 405683165 -gneE28 -gneE23" id="-gneE11" />
    
    
        <route edges="-gneE31 gneE29 -6268492#1 -422856036#1 gneE32 gneE35 gneE36 6272852#3 gneE46" id="-gneE31" />
    
    
        <route edges="gneE35 gneE36 6272852#3 gneE38 -gneE41 gneE42 gneE1 gneE2 -gneE4 gneE8 gneE9 -gneE10 gneE11 gneE13 gneE16 -gneE17 -407511303#2 -407511291#5 407511291#3 407511303#0 gneE17" id="gneE35" />
    
    
        <route edges="gneE41 gneE39 -gneE36 -gneE35 -gneE32 405683165 -gneE28 -gneE23 385995453#0 4427539#1 -gneE20 34100169#0 4427534#0 385995923" id="gneE41" />
    
    
        <route edges="gneE4 -gneE2 -gneE1 -gneE42 gneE41 gneE39 -gneE36 -gneE35 -gneE32 405683165" id="gneE4" />
    
    
        <route edges="385995453#0 4427539#1 -gneE20 34100169#0" id="385995453#0" />
    
    
        <route edges="gneE47 -6268497#2 -422856036#1 gneE32 gneE35 gneE36 6272852#3 gneE38 -gneE41 gneE42 gneE1 gneE2 -gneE4 gneE8 gneE9 -gneE10 gneE11 gneE13 gneE14 gneE15 -gneE11" id="gneE47" />
    
    
        <route edges="385995453#0 4427539#1" id="385995453#0" />
    
    
        <route edges="gneE15 -gneE11 gneE10 -gneE9" id="gneE15" />
    
    
        <route edges="-385995453#1 gneE23 gneE28 -422856036#1 gneE32 gneE35 gneE36 6272852#3 gneE38 -gneE41 gneE42 gneE1 gneE2 -gneE4 gneE8 gneE9 -gneE10 gneE11 gneE13 gneE14 gneE15 -gneE11 gneE10 -gneE9 -gneE8 gneE4 -gneE2" id="-385995453#1" />
    
    
        <route edges="-4427534#1 -34100169#2 gneE20 -4427539#2 -385995453#1 gneE23" id="-4427534#1" />
    
    
        <route edges="-gneE21 4427539#1 -gneE20 34100169#0 -420074045#2" id="-gneE21" />
    
    
        <route edges="gneE15 -gneE11 gneE10 -gneE9 -gneE8 gneE4 -gneE2 -gneE1 -gneE42 gneE41" id="gneE15" />
    
    
        <route edges="-gneE21 -385995453#1 gneE23 gneE28 -422856036#1 gneE32 gneE35 gneE36 6272852#3 gneE38 -gneE41 gneE42 gneE1 gneE2 -gneE4 gneE8 gneE9 422850701#1" id="-gneE21" />
    
    
        <route edges="385995289#0 -385995453#1 gneE23 gneE28 -422856036#1 405683165 -gneE28 -gneE23" id="385995289#0" />
    
    
        <route edges="-gneE4 gneE8 gneE9 -gneE10 gneE11 gneE13 gneE14 gneE15 -gneE11 gneE10 -gneE9 -gneE8 gneE4 -gneE2 -gneE1 -gneE42 gneE41 gneE39 6272852#3 gneE38 -gneE41 gneE42" id="-gneE4" />
    
    
        <route edges="gneE8 gneE9 -gneE10 gneE11 gneE13 gneE16 -gneE17 -407511303#2 -gneE19 385995924 4427534#0" id="gneE8" />
    
    
        <route edges="gneE32 gneE35 gneE36 6272852#3" id="gneE32" />
    
    
        <route edges="-gneE23 385995453#0 4427539#1 -gneE20 34100169#0 4427534#0" id="-gneE23" />
    
    
        <route edges="34100169#0 -420074045#2 gneE19 407511303#0 gneE17 -gneE16 gneE14 gneE15 -gneE11 gneE10 -gneE9 -gneE8 gneE4 -gneE2 -gneE1 -gneE42 gneE41 gneE39 6272852#3 gneE38 -gneE41 gneE42 gneE1" id="34100169#0" />
    
    
        <route edges="gneE29 -6268492#1 -422856036#1 405683165" id="gneE29" />
    
    
        <route edges="gneE33 -gneE16 gneE14 gneE15 -gneE11 gneE10 -gneE9 -gneE8 gneE4 -gneE2 -gneE1 -gneE42 gneE41 gneE39 6272852#3 gneE38 -gneE41 gneE42 gneE1 gneE2" id="gneE33" />
    
    
        <route edges="-gneE9 -gneE8 gneE4 -gneE2 -gneE1" id="-gneE9" />
    
    
        <route edges="gneE20 -4427539#2 -385995453#1 gneE23 gneE28 -422856036#1 gneE32 gneE35 gneE36 6272852#3 gneE38 -gneE41 gneE42 gneE1 gneE2 -gneE4 gneE8 gneE9 -gneE10 gneE11 gneE13 gneE14 gneE15 -gneE11 gneE10 -gneE9 -gneE8" id="gneE20" />
    
    
        <route edges="-385995453#1 gneE23 gneE28 6268492#0 -gneE29 -660768672#2" id="-385995453#1" />
    
    
        <route edges="-gneE19 385995924 -34100169#2 gneE20 -4427539#2 -385995453#1 gneE23 gneE28 -422856036#1 gneE32 gneE35 gneE36 6272852#3 gneE38 -gneE41" id="-gneE19" />
    
    
        <route edges="-gneE21 -385995453#1 gneE23 gneE28 -422856036#1 gneE32" id="-gneE21" />
    
    
        <route edges="-gneE36 -gneE35 -gneE32 405683165 6268492#0 -gneE29 gneE31" id="-gneE36" />
    
    
        <route edges="-4427539#2 -385995453#1 gneE23 gneE28 -422856036#1 gneE32 gneE35 gneE36 6272852#3 gneE38 -gneE41 gneE42 gneE1 gneE2 -gneE4 gneE8 gneE9 -gneE10 gneE11 gneE13 gneE14 gneE15 -gneE11 gneE10 -gneE9 -gneE8 gneE4 -gneE2" id="-4427539#2" />
    
    
        <route edges="-4487590#0 -gneE4 gneE8 gneE9 -gneE10 gneE11 gneE13 gneE16 -gneE17 -407511303#2 -gneE19 385995924" id="-4487590#0" />
    
    
        <route edges="-6268497#2 -gneE28 -gneE23 385995453#0 4427539#1 -gneE20 34100169#0 -420074045#2 gneE19 407511303#0 gneE17 -gneE33" id="-6268497#2" />
    
    
        <route edges="4487775#3 -gneE1 -gneE42 gneE41 gneE39 6272852#3 gneE38 -gneE41 gneE42 gneE1 gneE2 -gneE4 gneE8 gneE9 -gneE10 gneE11 gneE13 gneE16 -gneE17 -407511303#2 -407511291#5 407511291#3 407511303#0" id="4487775#3" />
    
    
        <route edges="gneE8 gneE9 -gneE10 gneE11 gneE13 gneE14 gneE15 -gneE11 gneE10 -gneE9" id="gneE8" />
    
    
        <route edges="-gneE41 gneE42 gneE1 gneE2 -gneE4 gneE8 gneE9 -gneE10 gneE11 gneE13 gneE16 -gneE17 -407511303#2 -gneE19 385995924" id="-gneE41" />
    
    
        <route edges="-gneE41 gneE42 gneE1 gneE2 -gneE4 gneE8 gneE9 -gneE10 gneE11 gneE13 gneE14 gneE15" id="-gneE41" />
    
    
        <route edges="gneE8 gneE9 -gneE10 gneE11 gneE13 gneE14 gneE15 -gneE11 gneE10 -gneE9 -gneE8 gneE4 -gneE2 -gneE1 -gneE42 gneE41 gneE39 -gneE36 -gneE35 -gneE31 gneE29 -6268492#1 -422856036#1 gneE32" id="gneE8" />
    
    
        <route edges="407511291#3 407511303#0 gneE17 -gneE16 gneE14 gneE15 -gneE11 gneE10 -gneE9 -gneE8 gneE4 -gneE2 -gneE1 -gneE42 gneE41 gneE39 6272852#3 gneE38" id="407511291#3" />
    
    
        <route edges="-gneE17 -407511303#2 -gneE19 385995924 -34100169#2 gneE20 -4427539#2 -385995453#1 gneE23 gneE28 6268497#1 -gneE47" id="-gneE17" />
    
    
        <route edges="-gneE35 -gneE32 405683165 6268492#0 -gneE29 gneE31 gneE35 gneE36 6272852#3 gneE38 -gneE41 gneE42 gneE1 gneE2 -gneE4 gneE8 gneE9 -gneE10 gneE11 gneE13 gneE14" id="-gneE35" />
    
    
        <route edges="407511291#3 407511303#0 -407511303#2 -407511291#5" id="407511291#3" />
    
    
        <route edges="407511303#0 gneE17 -gneE16 gneE14 gneE15 -gneE11 gneE10 -gneE9 -gneE8 gneE4" id="407511303#0" />
    
    
        <route edges="-gneE23 385995453#0 4427539#1 -gneE20 34100169#0 -420074045#2 gneE19 407511303#0 gneE17 -gneE16 gneE14 gneE15 -gneE11" id="-gneE23" />
    
    
        <route edges="gneE33 -gneE16 gneE14 gneE15 -gneE11" id="gneE33" />
    
    
        <route edges="-gneE16 gneE14 gneE15 -gneE11 gneE10 -gneE9 -gneE8 gneE4 -gneE2 -gneE1 -gneE42 gneE41 gneE39 -gneE36 -gneE35 -gneE32" id="-gneE16" />
    
    
        <route edges="gneE3 -4487590#0 -gneE2 -gneE1 -gneE42 gneE41 gneE39 6272852#3 gneE46" id="gneE3" />
    
    
        <route edges="gneE34 gneE33 -gneE17 -407511303#2 -gneE19 385995924 -34100169#2 gneE20 -4427539#2 -385995453#1 gneE23 gneE28 -422856036#1 405683165 -gneE28 -gneE23 385995453#0 4427539#1" id="gneE34" />
    
    
        <route edges="-672687133 gneE15 -gneE11 gneE10 -gneE9 -gneE8 gneE4 -gneE2 -gneE1 -gneE42 gneE41 gneE39 6272852#3 gneE38 -gneE41" id="-672687133" />
    
    
        <route edges="-4427539#2 -385995453#1 gneE23 gneE28 -422856036#1 405683165 -gneE28 -gneE23 385995453#0 4427539#1 -gneE20 34100169#0 -420074045#2 gneE19 -407511291#5 407511291#3" id="-4427539#2" />
    
    
        <route edges="-422856036#1 gneE32 gneE35 gneE36 6272852#3 gneE38 -gneE41 gneE42 gneE1 gneE2 -gneE4 gneE8 gneE9 -gneE10 gneE11 gneE13 gneE16 -gneE17" id="-422856036#1" />
    
    
        <route edges="gneE2 -gneE4 gneE8 gneE9 -gneE10" id="gneE2" />
    
    
        <route edges="gneE23 gneE28 -422856036#1 405683165 -gneE28 -gneE23 385995453#0 4427539#1 -gneE20 34100169#0" id="gneE23" />
    
    
        <route edges="405683165 6268492#0 -gneE29 gneE31 gneE35 gneE36 6272852#3 gneE38 -gneE41 gneE42 gneE1 gneE2 -gneE4 gneE8 gneE9 422850701#1" id="405683165" />
    
    
        <route edges="407511291#3 -gneE19 385995924 -34100169#2 gneE20 -4427539#2 -385995453#1 gneE23 gneE28 6268492#0 -gneE29" id="407511291#3" />
    
    
        <route edges="gneE41 gneE39 6272852#3 gneE38 -gneE41 gneE42 gneE1 gneE2 -gneE4 gneE8 gneE9 -gneE10 gneE11 gneE13 gneE14 gneE15 -gneE11 gneE10 -gneE9" id="gneE41" />
    
    
        <route edges="-34100169#2 gneE20 -4427539#2 -385995453#1 gneE23 gneE28 -422856036#1 gneE32 gneE35 gneE36 6272852#3 gneE38 -gneE41 gneE42" id="-34100169#2" />
    
    
        <route edges="4427539#1 -gneE20 34100169#0 -420074045#2 gneE19" id="4427539#1" />
    
    
        <route edges="-4487590#0 -gneE4 gneE8 gneE9 -gneE10 gneE11 gneE13 gneE16 -gneE17 -407511303#2 -407511291#5 407511291#3" id="-4487590#0" />
    
    
        <route edges="-gneE32 405683165 6268492#0 -gneE29 gneE31 gneE35 gneE36 6272852#3 gneE38 -gneE41 gneE42 gneE1 gneE2 -gneE4 gneE8 gneE9 -gneE10 gneE11 gneE13 gneE14 gneE15 -gneE11" id="-gneE32" />
    
    
        <route edges="-gneE32 405683165 6268492#0 -gneE29 gneE31 gneE35 gneE36 6272852#3 gneE38 -gneE41 gneE42 gneE1 gneE2 -gneE4 gneE8 gneE9 -gneE10 gneE11" id="-gneE32" />
    
    
        <route edges="gneE47 -6268497#2 -422856036#1 gneE32 gneE35 gneE36 6272852#3 gneE38 -gneE41 gneE42 gneE1 gneE2 -gneE4 gneE8 gneE9 -gneE10 gneE11 gneE13 gneE14 gneE15 -gneE11 gneE10 -gneE9" id="gneE47" />
    
    
        <route edges="gneE45 gneE38 -gneE41 gneE42 gneE1 gneE2 -gneE4 gneE8 gneE9 -gneE10 gneE11 gneE13 gneE16 -gneE17 -407511303#2 -gneE19 385995924 -34100169#2 gneE20" id="gneE45" />
    
    
        <route edges="gneE19 407511303#0 -407511303#2 -gneE19 385995924 -34100169#2 gneE20 -4427539#2 -385995453#1 gneE23 gneE28" id="gneE19" />
    
    
        <route edges="gneE39 6272852#3 gneE38 -gneE41 gneE42 gneE1 gneE2 -gneE4 gneE8 gneE9 -gneE10 gneE11 gneE13 gneE14" id="gneE39" />
    
    
        <route edges="-4487590#0 -gneE2 -gneE1 -gneE42 gneE41 gneE39 6272852#3 gneE38 -gneE41" id="-4487590#0" />
    
    
        <route edges="405683165 -gneE28 -gneE23 385995453#0" id="405683165" />
    
    
        <route edges="gneE3 -4487590#0 -gneE2 -gneE1 -gneE42 gneE41 gneE39 -gneE36 -gneE35 -gneE32 405683165 -gneE28 -gneE23 385995453#0" id="gneE3" />
    
    
        <route edges="gneE15 gneE13 gneE16 -gneE17 -407511303#2 -407511291#5 407511291#3 407511303#0 gneE17 -gneE16" id="gneE15" />
    
    
        <route edges="gneE19 407511303#0 -407511303#2 -gneE19 385995924 -34100169#2 gneE20 -4427539#2 -385995453#1 gneE23 gneE28 -422856036#1 gneE32 gneE35" id="gneE19" />
    
    
        <route edges="-385995923 -4427534#1 -34100169#2 gneE20 -4427539#2 -385995453#1 gneE23 gneE28 -422856036#1 gneE32 gneE35 gneE36 6272852#3 gneE38 -gneE41 gneE42 gneE1 gneE2 -gneE4 gneE8 gneE9" id="-385995923" />
    
    
        <route edges="-4487590#0 -gneE4 gneE8 gneE9 -gneE10 gneE11 gneE13 gneE16 -gneE17 -407511303#2 -gneE19 385995924 -34100169#2 gneE20 -4427539#2 -385995453#1" id="-4487590#0" />
    
    
        <route edges="gneE36 6272852#3 gneE38 -gneE41 gneE42 gneE1 gneE2 -gneE4 gneE8 gneE9 -gneE10 gneE11 gneE13 gneE14 gneE15 -gneE11 gneE10 -gneE9 -gneE8" id="gneE36" />
    
    
        <route edges="-gneE29 gneE31 gneE35 gneE36 6272852#3 gneE38 -gneE41 gneE42 gneE1 gneE2 -gneE4 gneE8 gneE9 422850701#1 460515716" id="-gneE29" />
    
    
        <route edges="-460515716 -568720497 -gneE9 -gneE8 gneE4 -gneE2 -gneE1 -gneE42 gneE41 gneE39 6272852#3 gneE38" id="-460515716" />
    
    
        <route edges="-4427534#1 -34100169#2 gneE20 -4427539#2 -385995453#1" id="-4427534#1" />
    
    
        <route edges="385995453#0 4427539#1 -gneE20 34100169#0 -420074045#2 gneE19 407511303#0 gneE17 -gneE16 gneE14 gneE15 -gneE11 gneE10 -gneE9 -gneE8 gneE4 -gneE2 -gneE1 -gneE42 gneE41 gneE39 -gneE36 -gneE35" id="385995453#0" />
    
    
        <route edges="gneE15 -gneE11 gneE10 -gneE9 -gneE8 gneE4 -gneE2 -gneE1 -gneE42 gneE41 gneE39 6272852#3 gneE38 -gneE41 gneE42 gneE1 gneE2 -gneE4 gneE8 gneE9 -gneE10 gneE11" id="gneE15" />
    
    
        <route edges="gneE19 407511303#0 -407511303#2 -gneE19 385995924 -34100169#2 gneE20 -4427539#2 -385995453#1 gneE23 gneE28 -422856036#1 405683165" id="gneE19" />
    
    
        <route edges="gneE30 gneE29 -6268492#1 -gneE28 -gneE23 385995453#0 4427539#1 -gneE20 34100169#0 -420074045#2 gneE19 407511303#0" id="gneE30" />
    
    
        <route edges="gneE3 -4487590#0 -gneE2 -gneE1 -gneE42 gneE41 gneE39 -gneE36 -gneE35 -gneE32 405683165 6268492#0 -gneE29 gneE31" id="gneE3" />
    
    
        <route edges="gneE30 gneE29 -6268492#1 -gneE28 -gneE23 385995453#0 4427539#1 -gneE20 34100169#0 -420074045#2 gneE19 -407511291#5" id="gneE30" />
    
    
        <route edges="-460515716 -568720497 -gneE10 gneE11 gneE13 gneE14 424070030" id="-460515716" />
    
    