<?xml version="1.0" encoding="UTF-8"?>

<!-- generated on Fri Feb  7 10:51:29 2020 by Eclipse SUMO duarouter Version v1_1_0+0000-2147d155b1
<configuration xmlns:xsi="http://www.w3.org/2001/XMLSchema-instance" xsi:noNamespaceSchemaLocation="http://sumo.dlr.de/xsd/duarouterConfiguration.xsd">

    <input>
        <net-file value="/home/valentin/Schreibtisch/personal_sumo_files/lemgo_small.net.xml"/>
        <route-files value="trips.trips.xml"/>
    </input>

    <output>
        <output-file value="lemgo2.rou.xml"/>
        <alternatives-output value="lemgo2.rou.alt.xml"/>
    </output>

    <time>
        <begin value="0"/>
        <end value="500.0"/>
    </time>

    <report>
        <no-warnings value="true"/>
        <ignore-errors value="true"/>
        <no-step-log value="true"/>
    </report>

</configuration>
-->

<routes xmlns:xsi="http://www.w3.org/2001/XMLSchema-instance" xsi:noNamespaceSchemaLocation="http://sumo.dlr.de/xsd/routes_file.xsd">
    <vehicle id="1" type="type1" depart="0.50" departPos="free" departSpeed="max">
        <route edges="right_east right_junction_east 6268492#0 -gneE29"/>
    </vehicle>
    <vehicle id="4" type="type1" depart="2.00" departPos="free" departSpeed="max">
        <route edges="right_east right_junction_east -gneE28 -gneE23 left_junction_east 4427539#1 -gneE20"/>
    </vehicle>
    <vehicle id="5" type="type1" depart="2.50" departPos="free" departSpeed="max">
        <route edges="right_east right_junction_east -gneE28 -gneE23 left_junction_east 4427539#1"/>
    </vehicle>
    <vehicle id="9" type="type1" depart="4.50" departPos="free" departSpeed="max">
        <route edges="left_north left_junction_north -385995453#1 gneE23 right_junction_west -422856036#1 gneE32"/>
    </vehicle>
    <vehicle id="11" type="type1" depart="5.50" departPos="free" departSpeed="max">
        <route edges="left_west left_junction_west -385995453#1 gneE23 right_junction_west"/>
    </vehicle>
    <vehicle id="12" type="type1" depart="6.00" departPos="free" departSpeed="max">
        <route edges="right_south right_junction_south -gneE28 -gneE23 left_junction_east gneE21 -gneE26"/>
    </vehicle>
    <vehicle id="13" type="type1" depart="6.50" departPos="free" departSpeed="max">
        <route edges="right_north right_junction_north -gneE28 -gneE23 left_junction_east 4427539#1"/>
    </vehicle>
    <vehicle id="15" type="type1" depart="7.50" departPos="free" departSpeed="max">
        <route edges="right_north right_junction_north -gneE28 -gneE23 left_junction_east gneE21"/>
    </vehicle>
    <vehicle id="18" type="type1" depart="9.00" departPos="free" departSpeed="max">
        <route edges="right_east right_junction_east -gneE28 -gneE23 left_junction_east gneE21 -gneE26"/>
    </vehicle>
    <vehicle id="20" type="type1" depart="10.00" departPos="free" departSpeed="max">
        <route edges="right_east right_junction_east -gneE28 -gneE23 left_junction_east gneE21 -gneE26"/>
    </vehicle>
    <vehicle id="24" type="type1" depart="12.00" departPos="free" departSpeed="max">
        <route edges="right_east right_junction_east -gneE28"/>
    </vehicle>
    <vehicle id="27" type="type1" depart="13.50" departPos="free" departSpeed="max">
        <route edges="left_west left_junction_west -385995289#1 -gneE27"/>
    </vehicle>
    <vehicle id="28" type="type1" depart="14.00" departPos="free" departSpeed="max">
        <route edges="left_west left_junction_west gneE21"/>
    </vehicle>
    <vehicle id="30" type="type1" depart="15.00" departPos="free" departSpeed="max">
        <route edges="right_south right_junction_south -gneE28 -gneE23"/>
    </vehicle>
    <vehicle id="32" type="type1" depart="16.00" departPos="free" departSpeed="max">
        <route edges="right_north right_junction_north -gneE28 -gneE23 left_junction_east gneE21 -gneE26"/>
    </vehicle>
    <vehicle id="34" type="type1" depart="17.00" departPos="free" departSpeed="max">
        <route edges="right_north right_junction_north -gneE28 -gneE23"/>
    </vehicle>
    <vehicle id="35" type="type1" depart="17.50" departPos="free" departSpeed="max">
        <route edges="right_south right_junction_south -422856036#1 gneE32"/>
    </vehicle>
    <vehicle id="37" type="type1" depart="18.50" departPos="free" departSpeed="max">
        <route edges="left_south left_junction_south -385995453#1 gneE23 right_junction_west 6268492#0"/>
    </vehicle>
    <vehicle id="38" type="type1" depart="19.00" departPos="free" departSpeed="max">
        <route edges="left_west left_junction_west -385995453#1 gneE23"/>
    </vehicle>
    <vehicle id="40" type="type1" depart="20.00" departPos="free" departSpeed="max">
        <route edges="left_south left_junction_south -385995453#1 gneE23 right_junction_west"/>
    </vehicle>
    <vehicle id="41" type="type1" depart="20.50" departPos="free" departSpeed="max">
        <route edges="right_south right_junction_south -gneE28 -gneE23"/>
    </vehicle>
    <vehicle id="42" type="type1" depart="21.00" departPos="free" departSpeed="max">
        <route edges="left_north left_junction_north -385995453#1 gneE23 right_junction_west -422856036#1 gneE32"/>
    </vehicle>
    <vehicle id="43" type="type1" depart="21.50" departPos="free" departSpeed="max">
        <route edges="right_south right_junction_south -gneE28"/>
    </vehicle>
    <vehicle id="44" type="type1" depart="22.00" departPos="free" departSpeed="max">
        <route edges="left_north left_junction_north gneE21"/>
    </vehicle>
    <vehicle id="45" type="type1" depart="22.50" departPos="free" departSpeed="max">
        <route edges="right_north right_junction_north -422856036#1"/>
    </vehicle>
    <vehicle id="46" type="type1" depart="23.00" departPos="free" departSpeed="max">
        <route edges="left_north left_junction_north -385995453#1 gneE23 right_junction_west 6268497#1"/>
    </vehicle>
    <vehicle id="47" type="type1" depart="23.50" departPos="free" departSpeed="max">
        <route edges="left_south left_junction_south"/>
    </vehicle>
    <vehicle id="52" type="type1" depart="26.00" departPos="free" departSpeed="max">
        <route edges="right_south right_junction_south -gneE28 -gneE23 left_junction_east gneE21"/>
    </vehicle>
    <vehicle id="58" type="type1" depart="29.00" departPos="free" departSpeed="max">
        <route edges="right_south right_junction_south -gneE28 -gneE23"/>
    </vehicle>
    <vehicle id="60" type="type1" depart="30.00" departPos="free" departSpeed="max">
        <route edges="right_east right_junction_east -gneE28 -gneE23 left_junction_east 4427539#1"/>
    </vehicle>
    <vehicle id="63" type="type1" depart="31.50" departPos="free" departSpeed="max">
        <route edges="left_south left_junction_south 4427539#1"/>
    </vehicle>
    <vehicle id="64" type="type1" depart="32.00" departPos="free" departSpeed="max">
        <route edges="right_south right_junction_south -gneE28 -gneE23 left_junction_east 4427539#1"/>
    </vehicle>
    <vehicle id="67" type="type1" depart="33.50" departPos="free" departSpeed="max">
        <route edges="right_south right_junction_south -gneE28 -gneE23 left_junction_east"/>
    </vehicle>
    <vehicle id="69" type="type1" depart="34.50" departPos="free" departSpeed="max">
        <route edges="left_north left_junction_north gneE21"/>
    </vehicle>
    <vehicle id="70" type="type1" depart="35.00" departPos="free" departSpeed="max">
        <route edges="right_north right_junction_north -gneE28 -gneE23 left_junction_east 4427539#1"/>
    </vehicle>
    <vehicle id="72" type="type1" depart="36.00" departPos="free" departSpeed="max">
        <route edges="right_east right_junction_east"/>
    </vehicle>
    <vehicle id="73" type="type1" depart="36.50" departPos="free" departSpeed="max">
        <route edges="left_west left_junction_west -385995453#1 gneE23 right_junction_west 6268492#0 -gneE29"/>
    </vehicle>
    <vehicle id="74" type="type1" depart="37.00" departPos="free" departSpeed="max">
        <route edges="left_south left_junction_south 4427539#1 -gneE20"/>
    </vehicle>
    <vehicle id="75" type="type1" depart="37.50" departPos="free" departSpeed="max">
        <route edges="left_south left_junction_south -385995289#1 -gneE27"/>
    </vehicle>
    <vehicle id="76" type="type1" depart="38.00" departPos="free" departSpeed="max">
        <route edges="left_north left_junction_north gneE21 -gneE26"/>
    </vehicle>
    <vehicle id="77" type="type1" depart="38.50" departPos="free" departSpeed="max">
        <route edges="right_south right_junction_south 6268497#1 -gneE47"/>
    </vehicle>
    <vehicle id="78" type="type1" depart="39.00" departPos="free" departSpeed="max">
        <route edges="left_west left_junction_west -385995289#1"/>
    </vehicle>
    <vehicle id="80" type="type1" depart="40.00" departPos="free" departSpeed="max">
        <route edges="right_south right_junction_south -gneE28 -gneE23 left_junction_east 4427539#1"/>
    </vehicle>
    <vehicle id="84" type="type1" depart="42.00" departPos="free" departSpeed="max">
        <route edges="left_west left_junction_west -385995453#1"/>
    </vehicle>
    <vehicle id="85" type="type1" depart="42.50" departPos="free" departSpeed="max">
        <route edges="right_north right_junction_north"/>
    </vehicle>
    <vehicle id="86" type="type1" depart="43.00" departPos="free" departSpeed="max">
        <route edges="right_east right_junction_east -gneE28 -gneE23 left_junction_east gneE21 -gneE26"/>
    </vehicle>
    <vehicle id="88" type="type1" depart="44.00" departPos="free" departSpeed="max">
        <route edges="right_east right_junction_east 6268497#1 -gneE47"/>
    </vehicle>
    <vehicle id="90" type="type1" depart="45.00" departPos="free" departSpeed="max">
        <route edges="right_east right_junction_east -gneE28 -gneE23 left_junction_east gneE21"/>
    </vehicle>
    <vehicle id="93" type="type1" depart="46.50" departPos="free" departSpeed="max">
        <route edges="left_south left_junction_south -385995289#1 -gneE27"/>
    </vehicle>
    <vehicle id="94" type="type1" depart="47.00" departPos="free" departSpeed="max">
        <route edges="left_west left_junction_west -385995453#1 gneE23 right_junction_west 6268497#1"/>
    </vehicle>
    <vehicle id="96" type="type1" depart="48.00" departPos="free" departSpeed="max">
        <route edges="left_south left_junction_south -385995453#1 gneE23 right_junction_west -422856036#1 gneE32"/>
    </vehicle>
    <vehicle id="97" type="type1" depart="48.50" departPos="free" departSpeed="max">
        <route edges="right_south right_junction_south -422856036#1 gneE32"/>
    </vehicle>
    <vehicle id="98" type="type1" depart="49.00" departPos="free" departSpeed="max">
        <route edges="left_south left_junction_south -385995453#1 gneE23"/>
    </vehicle>
    <vehicle id="103" type="type1" depart="51.50" departPos="free" departSpeed="max">
        <route edges="left_north left_junction_north gneE21 -gneE26"/>
    </vehicle>
    <vehicle id="104" type="type1" depart="52.00" departPos="free" departSpeed="max">
        <route edges="left_west left_junction_west -385995289#1"/>
    </vehicle>
    <vehicle id="107" type="type1" depart="53.50" departPos="free" departSpeed="max">
        <route edges="left_west left_junction_west -385995453#1 gneE23 right_junction_west 6268492#0"/>
    </vehicle>
    <vehicle id="108" type="type1" depart="54.00" departPos="free" departSpeed="max">
        <route edges="left_north left_junction_north 4427539#1 -gneE20"/>
    </vehicle>
    <vehicle id="111" type="type1" depart="55.50" departPos="free" departSpeed="max">
        <route edges="right_north right_junction_north -gneE28 -gneE23 left_junction_east gneE21 -gneE26"/>
    </vehicle>
    <vehicle id="113" type="type1" depart="56.50" departPos="free" departSpeed="max">
        <route edges="right_north right_junction_north"/>
    </vehicle>
    <vehicle id="115" type="type1" depart="57.50" departPos="free" departSpeed="max">
        <route edges="right_north right_junction_north -gneE28"/>
    </vehicle>
    <vehicle id="116" type="type1" depart="58.00" departPos="free" departSpeed="max">
        <route edges="right_east right_junction_east -gneE28"/>
    </vehicle>
    <vehicle id="117" type="type1" depart="58.50" departPos="free" departSpeed="max">
        <route edges="right_south right_junction_south -422856036#1"/>
    </vehicle>
    <vehicle id="118" type="type1" depart="59.00" departPos="free" departSpeed="max">
        <route edges="right_east right_junction_east 6268497#1"/>
    </vehicle>
    <vehicle id="119" type="type1" depart="59.50" departPos="free" departSpeed="max">
        <route edges="left_west left_junction_west gneE21 -gneE26"/>
    </vehicle>
    <vehicle id="120" type="type1" depart="60.00" departPos="free" departSpeed="max">
        <route edges="left_south left_junction_south -385995453#1 gneE23 right_junction_west 6268492#0"/>
    </vehicle>
    <vehicle id="123" type="type1" depart="61.50" departPos="free" departSpeed="max">
        <route edges="right_east right_junction_east"/>
    </vehicle>
    <vehicle id="124" type="type1" depart="62.00" departPos="free" departSpeed="max">
        <route edges="left_south left_junction_south"/>
    </vehicle>
    <vehicle id="125" type="type1" depart="62.50" departPos="free" departSpeed="max">
        <route edges="left_south left_junction_south 4427539#1 -gneE20"/>
    </vehicle>
    <vehicle id="126" type="type1" depart="63.00" departPos="free" departSpeed="max">
        <route edges="right_east right_junction_east 6268492#0"/>
    </vehicle>
    <vehicle id="128" type="type1" depart="64.00" departPos="free" departSpeed="max">
        <route edges="left_north left_junction_north 4427539#1"/>
    </vehicle>
    <vehicle id="131" type="type1" depart="65.50" departPos="free" departSpeed="max">
        <route edges="right_east right_junction_east 6268497#1"/>
    </vehicle>
    <vehicle id="132" type="type1" depart="66.00" departPos="free" departSpeed="max">
        <route edges="left_south left_junction_south 4427539#1"/>
    </vehicle>
    <vehicle id="133" type="type1" depart="66.50" departPos="free" departSpeed="max">
        <route edges="right_south right_junction_south -gneE28 -gneE23 left_junction_east gneE21 -gneE26"/>
    </vehicle>
    <vehicle id="135" type="type1" depart="67.50" departPos="free" departSpeed="max">
        <route edges="right_east right_junction_east 6268492#0 -gneE29"/>
    </vehicle>
    <vehicle id="138" type="type1" depart="69.00" departPos="free" departSpeed="max">
        <route edges="left_north left_junction_north 4427539#1"/>
    </vehicle>
    <vehicle id="140" type="type1" depart="70.00" departPos="free" departSpeed="max">
        <route edges="left_north left_junction_north gneE21 -gneE26"/>
    </vehicle>
    <vehicle id="142" type="type1" depart="71.00" departPos="free" departSpeed="max">
        <route edges="right_east right_junction_east 6268492#0"/>
    </vehicle>
    <vehicle id="144" type="type1" depart="72.00" departPos="free" departSpeed="max">
        <route edges="left_north left_junction_north 4427539#1 -gneE20"/>
    </vehicle>
    <vehicle id="148" type="type1" depart="74.00" departPos="free" departSpeed="max">
        <route edges="right_south right_junction_south -gneE28 -gneE23 left_junction_east -385995289#1 -gneE27"/>
    </vehicle>
    <vehicle id="149" type="type1" depart="74.50" departPos="free" departSpeed="max">
        <route edges="left_west left_junction_west -385995453#1 gneE23 right_junction_west"/>
    </vehicle>
    <vehicle id="151" type="type1" depart="75.50" departPos="free" departSpeed="max">
        <route edges="left_north left_junction_north gneE21 -gneE26"/>
    </vehicle>
    <vehicle id="152" type="type1" depart="76.00" departPos="free" departSpeed="max">
        <route edges="left_north left_junction_north -385995453#1 gneE23"/>
    </vehicle>
    <vehicle id="154" type="type1" depart="77.00" departPos="free" departSpeed="max">
        <route edges="left_west left_junction_west -385995453#1 gneE23 right_junction_west"/>
    </vehicle>
    <vehicle id="156" type="type1" depart="78.00" departPos="free" departSpeed="max">
        <route edges="left_west left_junction_west -385995453#1 gneE23 right_junction_west 6268497#1 -gneE47"/>
    </vehicle>
    <vehicle id="158" type="type1" depart="79.00" departPos="free" departSpeed="max">
        <route edges="right_south right_junction_south 6268497#1 -gneE47"/>
    </vehicle>
    <vehicle id="159" type="type1" depart="79.50" departPos="free" departSpeed="max">
        <route edges="right_east right_junction_east -gneE28 -gneE23 left_junction_east 4427539#1 -gneE20"/>
    </vehicle>
    <vehicle id="161" type="type1" depart="80.50" departPos="free" departSpeed="max">
        <route edges="right_east right_junction_east -gneE28 -gneE23 left_junction_east"/>
    </vehicle>
    <vehicle id="164" type="type1" depart="82.00" departPos="free" departSpeed="max">
        <route edges="left_west left_junction_west -385995453#1 gneE23 right_junction_west 6268492#0 -gneE29"/>
    </vehicle>
    <vehicle id="166" type="type1" depart="83.00" departPos="free" departSpeed="max">
        <route edges="right_east right_junction_east -gneE28 -gneE23 left_junction_east gneE21"/>
    </vehicle>
    <vehicle id="167" type="type1" depart="83.50" departPos="free" departSpeed="max">
        <route edges="right_south right_junction_south 6268497#1"/>
    </vehicle>
    <vehicle id="169" type="type1" depart="84.50" departPos="free" departSpeed="max">
        <route edges="right_north right_junction_north -gneE28 -gneE23 left_junction_east -385995289#1 -gneE27"/>
    </vehicle>
    <vehicle id="170" type="type1" depart="85.00" departPos="free" departSpeed="max">
        <route edges="left_north left_junction_north -385995453#1 gneE23 right_junction_west 6268492#0"/>
    </vehicle>
    <vehicle id="171" type="type1" depart="85.50" departPos="free" departSpeed="max">
        <route edges="right_north right_junction_north -gneE28 -gneE23 left_junction_east gneE21 -gneE26"/>
    </vehicle>
    <vehicle id="173" type="type1" depart="86.50" departPos="free" departSpeed="max">
        <route edges="right_east right_junction_east -gneE28 -gneE23 left_junction_east 4427539#1 -gneE20"/>
    </vehicle>
    <vehicle id="174" type="type1" depart="87.00" departPos="free" departSpeed="max">
        <route edges="left_north left_junction_north -385995453#1"/>
    </vehicle>
    <vehicle id="175" type="type1" depart="87.50" departPos="free" departSpeed="max">
        <route edges="left_west left_junction_west -385995453#1 gneE23 right_junction_west 6268497#1"/>
    </vehicle>
    <vehicle id="177" type="type1" depart="88.50" departPos="free" departSpeed="max">
        <route edges="right_north right_junction_north -gneE28 -gneE23 left_junction_east"/>
    </vehicle>
    <vehicle id="178" type="type1" depart="89.00" departPos="free" departSpeed="max">
        <route edges="left_west left_junction_west -385995453#1 gneE23 right_junction_west"/>
    </vehicle>
    <vehicle id="179" type="type1" depart="89.50" departPos="free" departSpeed="max">
        <route edges="left_north left_junction_north -385995453#1 gneE23 right_junction_west -422856036#1"/>
    </vehicle>
    <vehicle id="180" type="type1" depart="90.00" departPos="free" departSpeed="max">
        <route edges="left_north left_junction_north -385995453#1 gneE23 right_junction_west"/>
    </vehicle>
    <vehicle id="181" type="type1" depart="90.50" departPos="free" departSpeed="max">
        <route edges="right_east right_junction_east 6268497#1 -gneE47"/>
    </vehicle>
    <vehicle id="182" type="type1" depart="91.00" departPos="free" departSpeed="max">
        <route edges="right_south right_junction_south -gneE28 -gneE23 left_junction_east gneE21 -gneE26"/>
    </vehicle>
    <vehicle id="183" type="type1" depart="91.50" departPos="free" departSpeed="max">
        <route edges="left_south left_junction_south -385995453#1 gneE23 right_junction_west 6268492#0 -gneE29"/>
    </vehicle>
    <vehicle id="185" type="type1" depart="92.50" departPos="free" departSpeed="max">
        <route edges="left_south left_junction_south -385995453#1 gneE23 right_junction_west -422856036#1 gneE32"/>
    </vehicle>
    <vehicle id="188" type="type1" depart="94.00" departPos="free" departSpeed="max">
        <route edges="left_north left_junction_north -385995453#1 gneE23 right_junction_west"/>
    </vehicle>
    <vehicle id="189" type="type1" depart="94.50" departPos="free" departSpeed="max">
        <route edges="left_west left_junction_west -385995453#1 gneE23"/>
    </vehicle>
    <vehicle id="190" type="type1" depart="95.00" departPos="free" departSpeed="max">
        <route edges="left_north left_junction_north -385995453#1 gneE23 right_junction_west -422856036#1 gneE32"/>
    </vehicle>
    <vehicle id="193" type="type1" depart="96.50" departPos="free" departSpeed="max">
        <route edges="right_north right_junction_north -gneE28"/>
    </vehicle>
    <vehicle id="194" type="type1" depart="97.00" departPos="free" departSpeed="max">
        <route edges="left_west left_junction_west -385995453#1 gneE23 right_junction_west 6268497#1"/>
    </vehicle>
    <vehicle id="195" type="type1" depart="97.50" departPos="free" departSpeed="max">
        <route edges="left_north left_junction_north -385995453#1 gneE23 right_junction_west 6268497#1"/>
    </vehicle>
    <vehicle id="197" type="type1" depart="98.50" departPos="free" departSpeed="max">
        <route edges="left_south left_junction_south -385995453#1 gneE23 right_junction_west -422856036#1 gneE32"/>
    </vehicle>
    <vehicle id="201" type="type1" depart="100.50" departPos="free" departSpeed="max">
        <route edges="right_east right_junction_east -gneE28 -gneE23 left_junction_east -385995289#1 -gneE27"/>
    </vehicle>
    <vehicle id="202" type="type1" depart="101.00" departPos="free" departSpeed="max">
        <route edges="left_south left_junction_south -385995289#1 -gneE27"/>
    </vehicle>
    <vehicle id="203" type="type1" depart="101.50" departPos="free" departSpeed="max">
        <route edges="left_south left_junction_south 4427539#1 -gneE20"/>
    </vehicle>
    <vehicle id="204" type="type1" depart="102.00" departPos="free" departSpeed="max">
        <route edges="right_south right_junction_south -gneE28 -gneE23 left_junction_east"/>
    </vehicle>
    <vehicle id="205" type="type1" depart="102.50" departPos="free" departSpeed="max">
        <route edges="left_north left_junction_north -385995453#1 gneE23 right_junction_west 6268497#1 -gneE47"/>
    </vehicle>
    <vehicle id="207" type="type1" depart="103.50" departPos="free" departSpeed="max">
        <route edges="right_east right_junction_east -gneE28 -gneE23 left_junction_east gneE21"/>
    </vehicle>
    <vehicle id="209" type="type1" depart="104.50" departPos="free" departSpeed="max">
        <route edges="left_north left_junction_north -385995453#1"/>
    </vehicle>
    <vehicle id="210" type="type1" depart="105.00" departPos="free" departSpeed="max">
        <route edges="right_south right_junction_south -gneE28 -gneE23 left_junction_east gneE21 -gneE26"/>
    </vehicle>
    <vehicle id="212" type="type1" depart="106.00" departPos="free" departSpeed="max">
        <route edges="right_south right_junction_south -422856036#1"/>
    </vehicle>
    <vehicle id="215" type="type1" depart="107.50" departPos="free" departSpeed="max">
        <route edges="left_south left_junction_south -385995453#1 gneE23 right_junction_west 6268492#0 -gneE29"/>
    </vehicle>
    <vehicle id="217" type="type1" depart="108.50" departPos="free" departSpeed="max">
        <route edges="left_north left_junction_north -385995453#1 gneE23 right_junction_west -422856036#1 gneE32"/>
    </vehicle>
    <vehicle id="219" type="type1" depart="109.50" departPos="free" departSpeed="max">
        <route edges="right_east right_junction_east 6268497#1 -gneE47"/>
    </vehicle>
    <vehicle id="222" type="type1" depart="111.00" departPos="free" departSpeed="max">
        <route edges="right_east right_junction_east -gneE28"/>
    </vehicle>
    <vehicle id="225" type="type1" depart="112.50" departPos="free" departSpeed="max">
        <route edges="right_south right_junction_south -gneE28"/>
    </vehicle>
    <vehicle id="233" type="type1" depart="116.50" departPos="free" departSpeed="max">
        <route edges="left_west left_junction_west"/>
    </vehicle>
    <vehicle id="235" type="type1" depart="117.50" departPos="free" departSpeed="max">
        <route edges="left_south left_junction_south -385995453#1 gneE23 right_junction_west 6268497#1"/>
    </vehicle>
    <vehicle id="236" type="type1" depart="118.00" departPos="free" departSpeed="max">
        <route edges="right_north right_junction_north"/>
    </vehicle>
    <vehicle id="237" type="type1" depart="118.50" departPos="free" departSpeed="max">
        <route edges="left_south left_junction_south 4427539#1 -gneE20"/>
    </vehicle>
    <vehicle id="239" type="type1" depart="119.50" departPos="free" departSpeed="max">
        <route edges="right_north right_junction_north -422856036#1 gneE32"/>
    </vehicle>
    <vehicle id="244" type="type1" depart="122.00" departPos="free" departSpeed="max">
        <route edges="right_north right_junction_north -gneE28 -gneE23"/>
    </vehicle>
    <vehicle id="247" type="type1" depart="123.50" departPos="free" departSpeed="max">
        <route edges="right_south right_junction_south 6268497#1"/>
    </vehicle>
    <vehicle id="251" type="type1" depart="125.50" departPos="free" departSpeed="max">
        <route edges="right_south right_junction_south 6268497#1 -gneE47"/>
    </vehicle>
    <vehicle id="252" type="type1" depart="126.00" departPos="free" departSpeed="max">
        <route edges="left_north left_junction_north -385995453#1 gneE23 right_junction_west 6268492#0"/>
    </vehicle>
    <vehicle id="257" type="type1" depart="128.50" departPos="free" departSpeed="max">
        <route edges="left_south left_junction_south -385995453#1 gneE23"/>
    </vehicle>
    <vehicle id="258" type="type1" depart="129.00" departPos="free" departSpeed="max">
        <route edges="right_east right_junction_east -gneE28 -gneE23 left_junction_east -385995289#1"/>
    </vehicle>
    <vehicle id="259" type="type1" depart="129.50" departPos="free" departSpeed="max">
        <route edges="left_west left_junction_west -385995453#1 gneE23"/>
    </vehicle>
    <vehicle id="260" type="type1" depart="130.00" departPos="free" departSpeed="max">
        <route edges="left_west left_junction_west gneE21"/>
    </vehicle>
    <vehicle id="264" type="type1" depart="132.00" departPos="free" departSpeed="max">
        <route edges="right_north right_junction_north -gneE28 -gneE23 left_junction_east -385995289#1 -gneE27"/>
    </vehicle>
    <vehicle id="265" type="type1" depart="132.50" departPos="free" departSpeed="max">
        <route edges="right_east right_junction_east -gneE28 -gneE23 left_junction_east 4427539#1"/>
    </vehicle>
    <vehicle id="267" type="type1" depart="133.50" departPos="free" departSpeed="max">
        <route edges="right_east right_junction_east -gneE28 -gneE23 left_junction_east -385995289#1 -gneE27"/>
    </vehicle>
    <vehicle id="269" type="type1" depart="134.50" departPos="free" departSpeed="max">
        <route edges="right_east right_junction_east -gneE28 -gneE23 left_junction_east gneE21"/>
    </vehicle>
    <vehicle id="270" type="type1" depart="135.00" departPos="free" departSpeed="max">
        <route edges="left_west left_junction_west -385995453#1 gneE23 right_junction_west"/>
    </vehicle>
    <vehicle id="271" type="type1" depart="135.50" departPos="free" departSpeed="max">
        <route edges="left_west left_junction_west -385995453#1 gneE23 right_junction_west -422856036#1 gneE32"/>
    </vehicle>
    <vehicle id="273" type="type1" depart="136.50" departPos="free" departSpeed="max">
        <route edges="right_north right_junction_north -gneE28"/>
    </vehicle>
    <vehicle id="275" type="type1" depart="137.50" departPos="free" departSpeed="max">
        <route edges="right_north right_junction_north 6268492#0"/>
    </vehicle>
    <vehicle id="277" type="type1" depart="138.50" departPos="free" departSpeed="max">
        <route edges="left_south left_junction_south -385995453#1 gneE23 right_junction_west 6268497#1 -gneE47"/>
    </vehicle>
    <vehicle id="279" type="type1" depart="139.50" departPos="free" departSpeed="max">
        <route edges="right_north right_junction_north -gneE28 -gneE23 left_junction_east -385995289#1 -gneE27"/>
    </vehicle>
    <vehicle id="280" type="type1" depart="140.00" departPos="free" departSpeed="max">
        <route edges="left_north left_junction_north -385995453#1 gneE23 right_junction_west 6268497#1 -gneE47"/>
    </vehicle>
    <vehicle id="284" type="type1" depart="142.00" departPos="free" departSpeed="max">
        <route edges="left_west left_junction_west gneE21"/>
    </vehicle>
    <vehicle id="286" type="type1" depart="143.00" departPos="free" departSpeed="max">
        <route edges="left_south left_junction_south -385995453#1 gneE23 right_junction_west -422856036#1"/>
    </vehicle>
    <vehicle id="287" type="type1" depart="143.50" departPos="free" departSpeed="max">
        <route edges="left_north left_junction_north -385995453#1 gneE23 right_junction_west 6268497#1 -gneE47"/>
    </vehicle>
    <vehicle id="292" type="type1" depart="146.00" departPos="free" departSpeed="max">
        <route edges="left_west left_junction_west -385995289#1"/>
    </vehicle>
    <vehicle id="295" type="type1" depart="147.50" departPos="free" departSpeed="max">
        <route edges="left_south left_junction_south -385995289#1 -gneE27"/>
    </vehicle>
    <vehicle id="297" type="type1" depart="148.50" departPos="free" departSpeed="max">