<routes xmlns:xsi="http://www.w3.org/2001/XMLSchema-instance" xsi:noNamespaceSchemaLocation="http://sumo.dlr.de/xsd/routes_file.xsd">
    <route edges="right_east right_junction_east 6268492#0 -gneE29" id="right_east" /><route edges="right_east right_junction_east -gneE28 -gneE23 left_junction_east 4427539#1 -gneE20" id="right_east" /><route edges="right_east right_junction_east -gneE28 -gneE23 left_junction_east 4427539#1" id="right_east" /><route edges="left_north left_junction_north -385995453#1 gneE23 right_junction_west -422856036#1 gneE32" id="left_north" /><route edges="left_west left_junction_west -385995453#1 gneE23 right_junction_west" id="left_west" /><route edges="right_south right_junction_south -gneE28 -gneE23 left_junction_east gneE21 -gneE26" id="right_south" /><route edges="right_north right_junction_north -gneE28 -gneE23 left_junction_east 4427539#1" id="right_north" /><route edges="right_north right_junction_north -gneE28 -gneE23 left_junction_east gneE21" id="right_north" /><route edges="right_east right_junction_east -gneE28 -gneE23 left_junction_east gneE21 -gneE26" id="right_east" /><route edges="right_east right_junction_east -gneE28 -gneE23 left_junction_east gneE21 -gneE26" id="right_east" /><route edges="right_east right_junction_east -gneE28" id="right_east" /><route edges="left_west left_junction_west -385995289#1 -gneE27" id="left_west" /><route edges="left_west left_junction_west gneE21" id="left_west" /><route edges="right_south right_junction_south -gneE28 -gneE23" id="right_south" /><route edges="right_north right_junction_north -gneE28 -gneE23 left_junction_east gneE21 -gneE26" id="right_north" /><route edges="right_north right_junction_north -gneE28 -gneE23" id="right_north" /><route edges="right_south right_junction_south -422856036#1 gneE32" id="right_south" /><route edges="left_south left_junction_south -385995453#1 gneE23 right_junction_west 6268492#0" id="left_south" /><route edges="left_west left_junction_west -385995453#1 gneE23" id="left_west" /><route edges="left_south left_junction_south -385995453#1 gneE23 right_junction_west" id="left_south" /><route edges="right_south right_junction_south -gneE28 -gneE23" id="right_south" /><route edges="left_north left_junction_north -385995453#1 gneE23 right_junction_west -422856036#1 gneE32" id="left_north" /><route edges="right_south right_junction_south -gneE28" id="right_south" /><route edges="left_north left_junction_north gneE21" id="left_north" /><route edges="right_north right_junction_north -422856036#1" id="right_north" /><route edges="left_north left_junction_north -385995453#1 gneE23 right_junction_west 6268497#1" id="left_north" /><route edges="left_south left_junction_south" id="left_south" /><route edges="right_south right_junction_south -gneE28 -gneE23 left_junction_east gneE21" id="right_south" /><route edges="right_south right_junction_south -gneE28 -gneE23" id="right_south" /><route edges="right_east right_junction_east -gneE28 -gneE23 left_junction_east 4427539#1" id="right_east" /><route edges="left_south left_junction_south 4427539#1" id="left_south" /><route edges="right_south right_junction_south -gneE28 -gneE23 left_junction_east 4427539#1" id="right_south" /><route edges="right_south right_junction_south -gneE28 -gneE23 left_junction_east" id="right_south" /><route edges="left_north left_junction_north gneE21" id="left_north" /><route edges="right_north right_junction_north -gneE28 -gneE23 left_junction_east 4427539#1" id="right_north" /><route edges="right_east right_junction_east" id="right_east" /><route edges="left_west left_junction_west -385995453#1 gneE23 right_junction_west 6268492#0 -gneE29" id="left_west" /><route edges="left_south left_junction_south 4427539#1 -gneE20" id="left_south" /><route edges="left_south left_junction_south -385995289#1 -gneE27" id="left_south" /><route edges="left_north left_junction_north gneE21 -gneE26" id="left_north" /><route edges="right_south right_junction_south 6268497#1 -gneE47" id="right_south" /><route edges="left_west left_junction_west -385995289#1" id="left_west" /><route edges="right_south right_junction_south -gneE28 -gneE23 left_junction_east 4427539#1" id="right_south" /><route edges="left_west left_junction_west -385995453#1" id="left_west" /><route edges="right_north right_junction_north" id="right_north" /><route edges="right_east right_junction_east -gneE28 -gneE23 left_junction_east gneE21 -gneE26" id="right_east" /><route edges="right_east right_junction_east 6268497#1 -gneE47" id="right_east" /><route edges="right_east right_junction_east -gneE28 -gneE23 left_junction_east gneE21" id="right_east" /><route edges="left_south left_junction_south -385995289#1 -gneE27" id="left_south" /><route edges="left_west left_junction_west -385995453#1 gneE23 right_junction_west 6268497#1" id="left_west" /><route edges="left_south left_junction_south -385995453#1 gneE23 right_junction_west -422856036#1 gneE32" id="left_south" /><route edges="right_south right_junction_south -422856036#1 gneE32" id="right_south" /><route edges="left_south left_junction_south -385995453#1 gneE23" id="left_south" /><route edges="left_north left_junction_north gneE21 -gneE26" id="left_north" /><route edges="left_west left_junction_west -385995289#1" id="left_west" /><route edges="left_west left_junction_west -385995453#1 gneE23 right_junction_west 6268492#0" id="left_west" /><route edges="left_north left_junction_north 4427539#1 -gneE20" id="left_north" /><route edges="right_north right_junction_north -gneE28 -gneE23 left_junction_east gneE21 -gneE26" id="right_north" /><route edges="right_north right_junction_north" id="right_north" /><route edges="right_north right_junction_north -gneE28" id="right_north" /><route edges="right_east right_junction_east -gneE28" id="right_east" /><route edges="right_south right_junction_south -422856036#1" id="right_south" /><route edges="right_east right_junction_east 6268497#1" id="right_east" /><route edges="left_west left_junction_west gneE21 -gneE26" id="left_west" /><route edges="left_south left_junction_south -385995453#1 gneE23 right_junction_west 6268492#0" id="left_south" /><route edges="right_east right_junction_east" id="right_east" /><route edges="left_south left_junction_south" id="left_south" /><route edges="left_south left_junction_south 4427539#1 -gneE20" id="left_south" /><route edges="right_east right_junction_east 6268492#0" id="right_east" /><route edges="left_north left_junction_north 4427539#1" id="left_north" /><route edges="right_east right_junction_east 6268497#1" id="right_east" /><route edges="left_south left_junction_south 4427539#1" id="left_south" /><route edges="right_south right_junction_south -gneE28 -gneE23 left_junction_east gneE21 -gneE26" id="right_south" /><route edges="right_east right_junction_east 6268492#0 -gneE29" id="right_east" /><route edges="left_north left_junction_north 4427539#1" id="left_north" /><route edges="left_north left_junction_north gneE21 -gneE26" id="left_north" /><route edges="right_east right_junction_east 6268492#0" id="right_east" /><route edges="left_north left_junction_north 4427539#1 -gneE20" id="left_north" /><route edges="right_south right_junction_south -gneE28 -gneE23 left_junction_east -385995289#1 -gneE27" id="right_south" /><route edges="left_west left_junction_west -385995453#1 gneE23 right_junction_west" id="left_west" /><route edges="left_north left_junction_north gneE21 -gneE26" id="left_north" /><route edges="left_north left_junction_north -385995453#1 gneE23" id="left_north" /><route edges="left_west left_junction_west -385995453#1 gneE23 right_junction_west" id="left_west" /><route edges="left_west left_junction_west -385995453#1 gneE23 right_junction_west 6268497#1 -gneE47" id="left_west" /><route edges="right_south right_junction_south 6268497#1 -gneE47" id="right_south" /><route edges="right_east right_junction_east -gneE28 -gneE23 left_junction_east 4427539#1 -gneE20" id="right_east" /><route edges="right_east right_junction_east -gneE28 -gneE23 left_junction_east" id="right_east" /><route edges="left_west left_junction_west -385995453#1 gneE23 right_junction_west 6268492#0 -gneE29" id="left_west" /><route edges="right_east right_junction_east -gneE28 -gneE23 left_junction_east gneE21" id="right_east" /><route edges="right_south right_junction_south 6268497#1" id="right_south" /><route edges="right_north right_junction_north -gneE28 -gneE23 left_junction_east -385995289#1 -gneE27" id="right_north" /><route edges="left_north left_junction_north -385995453#1 gneE23 right_junction_west 6268492#0" id="left_north" /><route edges="right_north right_junction_north -gneE28 -gneE23 left_junction_east gneE21 -gneE26" id="right_north" /><route edges="right_east right_junction_east -gneE28 -gneE23 left_junction_east 4427539#1 -gneE20" id="right_east" /><route edges="left_north left_junction_north -385995453#1" id="left_north" /><route edges="left_west left_junction_west -385995453#1 gneE23 right_junction_west 6268497#1" id="left_west" /><route edges="right_north right_junction_north -gneE28 -gneE23 left_junction_east" id="right_north" /><route edges="left_west left_junction_west -385995453#1 gneE23 right_junction_west" id="left_west" /><route edges="left_north left_junction_north -385995453#1 gneE23 right_junction_west -422856036#1" id="left_north" /><route edges="left_north left_junction_north -385995453#1 gneE23 right_junction_west" id="left_north" /><route edges="right_east right_junction_east 6268497#1 -gneE47" id="right_east" /><route edges="right_south right_junction_south -gneE28 -gneE23 left_junction_east gneE21 -gneE26" id="right_south" /><route edges="left_south left_junction_south -385995453#1 gneE23 right_junction_west 6268492#0 -gneE29" id="left_south" /><route edges="left_south left_junction_south -385995453#1 gneE23 right_junction_west -422856036#1 gneE32" id="left_south" /><route edges="left_north left_junction_north -385995453#1 gneE23 right_junction_west" id="left_north" /><route edges="left_west left_junction_west -385995453#1 gneE23" id="left_west" /><route edges="left_north left_junction_north -385995453#1 gneE23 right_junction_west -422856036#1 gneE32" id="left_north" /><route edges="right_north right_junction_north -gneE28" id="right_north" /><route edges="left_west left_junction_west -385995453#1 gneE23 right_junction_west 6268497#1" id="left_west" /><route edges="left_north left_junction_north -385995453#1 gneE23 right_junction_west 6268497#1" id="left_north" /><route edges="left_south left_junction_south -385995453#1 gneE23 right_junction_west -422856036#1 gneE32" id="left_south" /><route edges="right_east right_junction_east -gneE28 -gneE23 left_junction_east -385995289#1 -gneE27" id="right_east" /><route edges="left_south left_junction_south -385995289#1 -gneE27" id="left_south" /><route edges="left_south left_junction_south 4427539#1 -gneE20" id="left_south" /><route edges="right_south right_junction_south -gneE28 -gneE23 left_junction_east" id="right_south" /><route edges="left_north left_junction_north -385995453#1 gneE23 right_junction_west 6268497#1 -gneE47" id="left_north" /><route edges="right_east right_junction_east -gneE28 -gneE23 left_junction_east gneE21" id="right_east" /><route edges="left_north left_junction_north -385995453#1" id="left_north" /><route edges="right_south right_junction_south -gneE28 -gneE23 left_junction_east gneE21 -gneE26" id="right_south" /><route edges="right_south right_junction_south -422856036#1" id="right_south" /><route edges="left_south left_junction_south -385995453#1 gneE23 right_junction_west 6268492#0 -gneE29" id="left_south" /><route edges="left_north left_junction_north -385995453#1 gneE23 right_junction_west -422856036#1 gneE32" id="left_north" /><route edges="right_east right_junction_east 6268497#1 -gneE47" id="right_east" /><route edges="right_east right_junction_east -gneE28" id="right_east" /><route edges="right_south right_junction_south -gneE28" id="right_south" /><route edges="left_west left_junction_west" id="left_west" /><route edges="left_south left_junction_south -385995453#1 gneE23 right_junction_west 6268497#1" id="left_south" /><route edges="right_north right_junction_north" id="right_north" /><route edges="left_south left_junction_south 4427539#1 -gneE20" id="left_south" /><route edges="right_north right_junction_north -422856036#1 gneE32" id="right_north" /><route edges="right_north right_junction_north -gneE28 -gneE23" id="right_north" /><route edges="right_south right_junction_south 6268497#1" id="right_south" /><route edges="right_south right_junction_south 6268497#1 -gneE47" id="right_south" /><route edges="left_north left_junction_north -385995453#1 gneE23 right_junction_west 6268492#0" id="left_north" /><route edges="left_south left_junction_south -385995453#1 gneE23" id="left_south" /><route edges="right_east right_junction_east -gneE28 -gneE23 left_junction_east -385995289#1" id="right_east" /><route edges="left_west left_junction_west -385995453#1 gneE23" id="left_west" /><route edges="left_west left_junction_west gneE21" id="left_west" /><route edges="right_north right_junction_north -gneE28 -gneE23 left_junction_east -385995289#1 -gneE27" id="right_north" /><route edges="right_east right_junction_east -gneE28 -gneE23 left_junction_east 4427539#1" id="right_east" /><route edges="right_east right_junction_east -gneE28 -gneE23 left_junction_east -385995289#1 -gneE27" id="right_east" /><route edges="right_east right_junction_east -gneE28 -gneE23 left_junction_east gneE21" id="right_east" /><route edges="left_west left_junction_west -385995453#1 gneE23 right_junction_west" id="left_west" /><route edges="left_west left_junction_west -385995453#1 gneE23 right_junction_west -422856036#1 gneE32" id="left_west" /><route edges="right_north right_junction_north -gneE28" id="right_north" /><route edges="right_north right_junction_north 6268492#0" id="right_north" /><route edges="left_south left_junction_south -385995453#1 gneE23 right_junction_west 6268497#1 -gneE47" id="left_south" /><route edges="right_north right_junction_north -gneE28 -gneE23 left_junction_east -385995289#1 -gneE27" id="right_north" /><route edges="left_north left_junction_north -385995453#1 gneE23 right_junction_west 6268497#1 -gneE47" id="left_north" /><route edges="left_west left_junction_west gneE21" id="left_west" /><route edges="left_south left_junction_south -385995453#1 gneE23 right_junction_west -422856036#1" id="left_south" /><route edges="left_north left_junction_north -385995453#1 gneE23 right_junction_west 6268497#1 -gneE47" id="left_north" /><route edges="left_west left_junction_west -385995289#1" id="left_west" /><route edges="left_south left_junction_south -385995289#1 -gneE27" id="left_south" /><route edges="left_north left_junction_north 4427539#1" id="left_north" /><route edges="right_north right_junction_north -422856036#1 gneE32" id="right_north" /><route edges="right_south right_junction_south -gneE28" id="right_south" /><route edges="left_west left_junction_west -385995453#1 gneE23 right_junction_west 6268497#1 -gneE47" id="left_west" /><route edges="right_south right_junction_south 6268497#1 -gneE47" id="right_south" /><route edges="left_north left_junction_north" id="left_north" /><route edges="right_south right_junction_south -gneE28 -gneE23 left_junction_east 4427539#1" id="right_south" /><route edges="right_east right_junction_east -gneE28 -gneE23 left_junction_east" id="right_east" /><route edges="left_west left_junction_west -385995453#1 gneE23 right_junction_west 6268492#0" id="left_west" /><route edges="left_south left_junction_south -385995453#1 gneE23 right_junction_west 6268497#1" id="left_south" /><route edges="right_north right_junction_north -gneE28 -gneE23 left_junction_east" id="right_north" /><route edges="left_west left_junction_west gneE21 -gneE26" id="left_west" /><route edges="left_south left_junction_south -385995453#1 gneE23 right_junction_west 6268497#1 -gneE47" id="left_south" /><route edges="left_south left_junction_south -385995453#1" id="left_south" /><route edges="left_north left_junction_north 4427539#1 -gneE20" id="left_north" /><route edges="right_east right_junction_east -gneE28 -gneE23 left_junction_east gneE21" id="right_east" /><route edges="right_south right_junction_south -422856036#1 gneE32" id="right_south" /><route edges="right_north right_junction_north -gneE28 -gneE23" id="right_north" /><route edges="right_south right_junction_south -422856036#1" id="right_south" /><route edges="right_east right_junction_east -gneE28 -gneE23 left_junction_east -385995289#1" id="right_east" /><route edges="right_north right_junction_north -gneE28 -gneE23" id="right_north" /><route edges="right_south right_junction_south -422856036#1" id="right_south" /><route edges="left_south left_junction_south 4427539#1 -gneE20" id="left_south" /><route edges="left_west left_junction_west -385995453#1 gneE23 right_junction_west 6268492#0" id="left_west" /><route edges="right_east right_junction_east 6268497#1 -gneE47" id="right_east" /><route edges="left_north left_junction_north -385995453#1 gneE23 right_junction_west" id="left_north" /><route edges="left_west left_junction_west gneE21" id="left_west" /><route edges="left_north left_junction_north -385995453#1 gneE23 right_junction_west -422856036#1" id="left_north" /><route edges="right_south right_junction_south 6268497#1" id="right_south" /><route edges="left_south left_junction_south -385995453#1 gneE23 right_junction_west" id="left_south" /><route edges="right_south right_junction_south -gneE28" id="right_south" /><route edges="left_west left_junction_west" id="left_west" /><route edges="right_east right_junction_east -gneE28 -gneE23 left_junction_east -385995289#1" id="right_east" /><route edges="left_north left_junction_north -385995453#1 gneE23 right_junction_west 6268497#1" id="left_north" /><route edges="left_north left_junction_north -385995453#1 gneE23 right_junction_west -422856036#1 gneE32" id="left_north" /><route edges="left_north left_junction_north -385995453#1 gneE23 right_junction_west -422856036#1" id="left_north" /><route edges="left_north left_junction_north -385995453#1 gneE23 right_junction_west" id="left_north" /><route edges="right_north right_junction_north -gneE28 -gneE23" id="right_north" /><route edges="right_north right_junction_north -422856036#1 gneE32" id="right_north" /><route edges="right_south right_junction_south -gneE28 -gneE23 left_junction_east -385995289#1" id="right_south" /><route edges="right_north right_junction_north -gneE28 -gneE23 left_junction_east gneE21 -gneE26" id="right_north" /><route edges="right_north right_junction_north 6268492#0" id="right_north" /><route edges="left_west left_junction_west -385995453#1 gneE23 right_junction_west 6268497#1" id="left_west" /><route edges="right_east right_junction_east 6268497#1 -gneE47" id="right_east" /><route edges="right_south right_junction_south 6268497#1 -gneE47" id="right_south" /><route edges="left_west left_junction_west -385995453#1 gneE23 right_junction_west" id="left_west" /><route edges="right_north right_junction_north -gneE28 -gneE23" id="right_north" /><route edges="right_north right_junction_north 6268492#0" id="right_north" /><route edges="right_south right_junction_south -gneE28" id="right_south" /><route edges="left_south left_junction_south -385995453#1 gneE23 right_junction_west -422856036#1" id="left_south" /><route edges="left_north left_junction_north gneE21 -gneE26" id="left_north" /><route edges="left_south left_junction_south -385995453#1 gneE23 right_junction_west 6268492#0" id="left_south" /><route edges="right_south right_junction_south -gneE28 -gneE23 left_junction_east 4427539#1 -gneE20" id="right_south" /><route edges="right_south right_junction_south -gneE28 -gneE23 left_junction_east gneE21" id="right_south" /><route edges="left_north left_junction_north 4427539#1" id="left_north" /><route edges="left_west left_junction_west gneE21 -gneE26" id="left_west" /><route edges="left_west left_junction_west -385995453#1 gneE23 right_junction_west -422856036#1" id="left_west" /><route edges="left_west left_junction_west gneE21 -gneE26" id="left_west" /><route edges="left_north left_junction_north -385995453#1 gneE23 right_junction_west -422856036#1" id="left_north" /><route edges="left_south left_junction_south -385995453#1 gneE23 right_junction_west -422856036#1" id="left_south" /><route edges="right_south right_junction_south -gneE28 -gneE23 left_junction_east 4427539#1 -gneE20" id="right_south" /><route edges="right_south right_junction_south -422856036#1" id="right_south" /><route edges="right_north right_junction_north -gneE28 -gneE23 left_junction_east" id="right_north" /><route edges="right_north right_junction_north -gneE28 -gneE23" id="right_north" /><route edges="left_north left_junction_north -385995453#1 gneE23 right_junction_west -422856036#1 gneE32" id="left_north" /><route edges="left_north left_junction_north -385995453#1" id="left_north" /><route edges="right_east right_junction_east -gneE28 -gneE23 left_junction_east" id="right_east" /><route edges="left_south left_junction_south -385995289#1" id="left_south" /><route edges="right_north right_junction_north -gneE28 -gneE23 left_junction_east gneE21 -gneE26" id="right_north" /><route edges="right_east right_junction_east" id="right_east" /><route edges="left_west left_junction_west -385995453#1 gneE23 right_junction_west -422856036#1" id="left_west" /><route edges="right_north right_junction_north" id="right_north" /><route edges="left_south left_junction_south 4427539#1" id="left_south" /><route edges="right_east right_junction_east" id="right_east" /><route edges="right_south right_junction_south 6268497#1" id="right_south" /><route edges="right_north right_junction_north -gneE28" id="right_north" /><route edges="left_west left_junction_west -385995453#1" id="left_west" /><route edges="right_east right_junction_east -gneE28 -gneE23 left_junction_east -385995289#1 -gneE27" id="right_east" /><route edges="left_south left_junction_south -385995453#1 gneE23 right_junction_west 6268492#0" id="left_south" /><route edges="right_south right_junction_south -422856036#1" id="right_south" /><route edges="right_south right_junction_south -422856036#1" id="right_south" /><route edges="left_west left_junction_west -385995453#1 gneE23 right_junction_west -422856036#1" id="left_west" /><route edges="right_east right_junction_east -gneE28 -gneE23 left_junction_east 4427539#1" id="right_east" /><route edges="left_north left_junction_north -385995453#1 gneE23 right_junction_west 6268497#1 -gneE47" id="left_north" /><route edges="right_south right_junction_south -gneE28 -gneE23 left_junction_east 4427539#1 -gneE20" id="right_south" /><route edges="right_north right_junction_north -422856036#1" id="right_north" /><route edges="right_north right_junction_north -gneE28 -gneE23 left_junction_east gneE21" id="right_north" /><route edges="right_south right_junction_south" id="right_south" /><route edges="left_south left_junction_south 4427539#1" id="left_south" /><route edges="right_south right_junction_south -gneE28 -gneE23 left_junction_east 4427539#1 -gneE20" id="right_south" /><route edges="left_north left_junction_north -385995453#1 gneE23 right_junction_west 6268492#0 -gneE29" id="left_north" /><route edges="right_east right_junction_east 6268492#0 -gneE29" id="right_east" /><route edges="right_south right_junction_south -gneE28 -gneE23 left_junction_east -385995289#1" id="right_south" /><route edges="right_south right_junction_south -gneE28 -gneE23 left_junction_east -385995289#1" id="right_south" /><route edges="right_south right_junction_south" id="right_south" /><route edges="left_north left_junction_north -385995453#1 gneE23 right_junction_west 6268497#1 -gneE47" id="left_north" /><route edges="right_north right_junction_north -gneE28" id="right_north" /><route edges="right_south right_junction_south -gneE28 -gneE23 left_junction_east -385995289#1 -gneE27" id="right_south" /><route edges="left_north left_junction_north -385995453#1 gneE23 right_junction_west 6268497#1" id="left_north" /><route edges="right_east right_junction_east -gneE28 -gneE23 left_junction_east" id="right_east" /><route edges="left_north left_junction_north gneE21" id="left_north" /><route edges="right_north right_junction_north -422856036#1 gneE32" id="right_north" /><route edges="left_north left_junction_north 4427539#1 -gneE20" id="left_north" /><route edges="left_south left_junction_south 4427539#1 -gneE20" id="left_south" /><route edges="left_west left_junction_west -385995289#1" id="left_west" /><route edges="right_east right_junction_east 6268497#1 -gneE47" id="right_east" /><route edges="right_south right_junction_south -gneE28 -gneE23 left_junction_east -385995289#1" id="right_south" /><route edges="right_east right_junction_east -gneE28 -gneE23 left_junction_east 4427539#1 -gneE20" id="right_east" /><route edges="right_north right_junction_north" id="right_north" /><route edges="right_north right_junction_north -gneE28 -gneE23 left_junction_east 4427539#1 -gneE20" id="right_north" /><route edges="right_south right_junction_south -422856036#1 gneE32" id="right_south" /><route edges="left_south left_junction_south" id="left_south" /><route edges="left_south left_junction_south -385995453#1 gneE23 right_junction_west 6268497#1" id="left_south" /><route edges="left_south left_junction_south -385995453#1 gneE23 right_junction_west 6268492#0" id="left_south" /><route edges="right_east right_junction_east -gneE28 -gneE23 left_junction_east" id="right_east" /><route edges="right_south right_junction_south -422856036#1" id="right_south" /><route edges="right_north right_junction_north -gneE28 -gneE23 left_junction_east gneE21" id="right_north" /><route edges="right_east right_junction_east -gneE28 -gneE23" id="right_east" /><route edges="right_north right_junction_north -gneE28 -gneE23 left_junction_east 4427539#1" id="right_north" /><route edges="left_south left_junction_south 4427539#1 -gneE20" id="left_south" /><route edges="left_south left_junction_south" id="left_south" /><route edges="right_east right_junction_east -gneE28 -gneE23 left_junction_east 4427539#1" id="right_east" /><route edges="right_south right_junction_south -gneE28 -gneE23" id="right_south" /><route edges="right_east right_junction_east -gneE28 -gneE23 left_junction_east -385995289#1 -gneE27" id="right_east" /><route edges="right_north right_junction_north -gneE28 -gneE23 left_junction_east -385995289#1 -gneE27" id="right_north" /><route edges="left_south left_junction_south -385995289#1 -gneE27" id="left_south" /><route edges="right_north right_junction_north 6268492#0" id="right_north" /><route edges="left_south left_junction_south -385995453#1 gneE23 right_junction_west 6268497#1 -gneE47" id="left_south" /><route edges="right_east right_junction_east" id="right_east" /><route edges="right_north right_junction_north -gneE28 -gneE23 left_junction_east gneE21" id="right_north" /><route edges="left_south left_junction_south -385995289#1 -gneE27" id="left_south" /><route edges="right_south right_junction_south -gneE28 -gneE23 left_junction_east -385995289#1 -gneE27" id="right_south" /><route edges="left_west left_junction_west -385995453#1 gneE23 right_junction_west" id="left_west" /><route edges="right_south right_junction_south -gneE28" id="right_south" /><route edges="right_north right_junction_north -gneE28 -gneE23 left_junction_east -385995289#1" id="right_north" /><route edges="left_west left_junction_west" id="left_west" /><route edges="right_south right_junction_south 6268497#1" id="right_south" /><route edges="right_east right_junction_east" id="right_east" /><route edges="left_north left_junction_north -385995453#1 gneE23 right_junction_west 6268497#1 -gneE47" id="left_north" /><route edges="right_north right_junction_north -422856036#1" id="right_north" /><route edges="left_west left_junction_west -385995453#1" id="left_west" /><route edges="left_south left_junction_south -385995453#1 gneE23" id="left_south" /><route edges="left_north left_junction_north 4427539#1 -gneE20" id="left_north" /><route edges="left_south left_junction_south -385995289#1 -gneE27" id="left_south" /><route edges="left_south left_junction_south -385995453#1 gneE23 right_junction_west -422856036#1" id="left_south" /><route edges="left_west left_junction_west -385995453#1 gneE23" id="left_west" /><route edges="right_south right_junction_south -422856036#1" id="right_south" /><route edges="right_south right_junction_south -gneE28 -gneE23 left_junction_east" id="right_south" /><route edges="left_north left_junction_north -385995453#1" id="left_north" /><route edges="right_north right_junction_north -gneE28 -gneE23 left_junction_east 4427539#1 -gneE20" id="right_north" /><route edges="left_south left_junction_south -385995453#1 gneE23 right_junction_west 6268497#1 -gneE47" id="left_south" /><route edges="left_west left_junction_west gneE21" id="left_west" /><route edges="left_west left_junction_west -385995453#1 gneE23 right_junction_west -422856036#1" id="left_west" /><route edges="left_south left_junction_south 4427539#1 -gneE20" id="left_south" /><route edges="left_west left_junction_west -385995453#1 gneE23 right_junction_west -422856036#1" id="left_west" /><route edges="right_south right_junction_south -gneE28 -gneE23 left_junction_east -385995289#1 -gneE27" id="right_south" /><route edges="left_north left_junction_north 4427539#1 -gneE20" id="left_north" /><route edges="left_north left_junction_north 4427539#1" id="left_north" /><route edges="left_north left_junction_north -385995453#1 gneE23 right_junction_west 6268492#0" id="left_north" /><route edges="left_west left_junction_west -385995453#1" id="left_west" /><route edges="left_south left_junction_south -385995453#1 gneE23 right_junction_west 6268492#0 -gneE29" id="left_south