<?xml version="1.0" encoding="UTF-8"?>

<!-- generated on Di 04 Feb 2020 20:49:06 CET by Eclipse SUMO netedit Version v1_1_0+0000-2147d155b1
<configuration xmlns:xsi="http://www.w3.org/2001/XMLSchema-instance" xsi:noNamespaceSchemaLocation="http://sumo.dlr.de/xsd/netconvertConfiguration.xsd">

    <input>
        <sumo-net-file value="lemgo_small.net.xml"/>
    </input>

    <output>
        <output-file value="lemgo_small.net.xml"/>
    </output>

    <processing>
        <geometry.max-grade.fix value="false"/>
        <offset.disable-normalization value="true"/>
        <lefthand value="false"/>
    </processing>

    <junctions>
        <no-turnarounds value="true"/>
        <junctions.corner-detail value="5"/>
        <junctions.limit-turn-speed value="5.5"/>
        <rectangular-lane-cut value="false"/>
    </junctions>

    <pedestrian>
        <walkingareas value="false"/>
    </pedestrian>

</configuration>
-->

<additional xmlns:xsi="http://www.w3.org/2001/XMLSchema-instance" xsi:noNamespaceSchemaLocation="http://sumo.dlr.de/xsd/additional_file.xsd">
    <e2Detector id="e2Detector_left_junction_east_0_6" length="60.00" lane="left_junction_east_0" pos="2.00" freq="900.00" file="e2Detector_left_junction_east_0_6.xml"/>
    <e2Detector id="e2Detector_left_junction_east_1_7" length="60.00" lane="left_junction_east_1" pos="2.00" freq="900.00" file="e2Detector_left_junction_east_1_7.xml"/>
    <e2Detector id="e2Detector_left_junction_north_0_4" length="51.00" lane="left_junction_north_0" pos="0.00" freq="900.00" file="e2Detector_left_junction_north_0_4.xml"/>
    <e2Detector id="e2Detector_left_junction_north_1_5" length="51.00" lane="left_junction_north_1" pos="0.00" freq="900.00" file="e2Detector_left_junction_north_1_5.xml"/>
    <e2Detector id="e2Detector_left_junction_south_0_0" length="46.00" lane="left_junction_south_0" pos="0.00" freq="900.00" file="e2Detector_left_junction_south_0_0.xml"/>
    <e2Detector id="e2Detector_left_junction_south_1_1" length="46.00" lane="left_junction_south_1" pos="0.00" freq="900.00" file="e2Detector_left_junction_south_1_1.xml"/>
    <e2Detector id="e2Detector_left_junction_west_0_2" length="60.00" lane="left_junction_west_0" pos="8.00" freq="900.00" file="e2Detector_left_junction_west_0_2.xml"/>
    <e2Detector id="e2Detector_left_junction_west_1_3" length="60.00" lane="left_junction_west_1" pos="8.00" freq="900.00" file="e2Detector_left_junction_west_1_3.xml"/>
    <e2Detector id="e2Detector_right_junction_east_0_15" length="60.00" lane="right_junction_east_0" pos="48.00" freq="900.00" file="e2Detector_right_junction_east_0_15.xml"/>
    <e2Detector id="e2Detector_right_junction_east_1_16" length="60.00" lane="right_junction_east_1" pos="48.00" freq="900.00" file="e2Detector_right_junction_east_1_16.xml"/>
    <e2Detector id="e2Detector_right_junction_north_0_13" length="60.00" lane="right_junction_north_0" pos="9.00" freq="900.00" file="e2Detector_right_junction_north_0_13.xml"/>
    <e2Detector id="e2Detector_right_junction_north_1_14" length="60.00" lane="right_junction_north_1" pos="9.00" freq="900.00" file="e2Detector_right_junction_north_1_14.xml"/>
    <e2Detector id="e2Detector_right_junction_south_0_8" length="40.00" lane="right_junction_south_0" pos="0.00" freq="900.00" file="e2Detector_right_junction_south_0_8.xml"/>
    <e2Detector id="e2Detector_right_junction_south_1_9" length="40.00" lane="right_junction_south_1" pos="0.00" freq="900.00" file="e2Detector_right_junction_south_1_9.xml"/>
    <e2Detector id="e2Detector_right_junction_west_0_11" length="54.00" lane="right_junction_west_0" pos="0.00" freq="900.00" file="e2Detector_right_junction_west_0_11.xml"/>
    <e2Detector id="e2Detector_right_junction_west_1_12" length="54.00" lane="right_junction_west_1" pos="0.00" freq="900.00" file="e2Detector_right_junction_west_1_12.xml"/>
</additional>
