<?xml version="1.0" encoding="UTF-8"?>

<!-- generated on Wed Dec 18 14:59:41 2019 by Eclipse SUMO duarouter Version v1_1_0+0000-2147d155b1
<configuration xmlns:xsi="http://www.w3.org/2001/XMLSchema-instance" xsi:noNamespaceSchemaLocation="http://sumo.dlr.de/xsd/duarouterConfiguration.xsd">

    <input>
        <net-file value="/home/valentin/Schreibtisch/personal_sumo_files/lemgo.net.xml"/>
        <route-files value="trips.trips.xml"/>
    </input>

    <output>
        <output-file value="lemgo.rou.xml"/>
        <alternatives-output value="lemgo.rou.alt.xml"/>
    </output>

    <time>
        <begin value="0"/>
        <end value="4000.0"/>
    </time>

    <report>
        <no-warnings value="true"/>
        <ignore-errors value="true"/>
        <no-step-log value="true"/>
    </report>

</configuration>
-->

<routes xmlns:xsi="http://www.w3.org/2001/XMLSchema-instance" xsi:noNamespaceSchemaLocation="http://sumo.dlr.de/xsd/routes_file.xsd">
    <route id="gneE18" edges="gneE18 407511291#3 407511303#0 gneE17 -gneE16 gneE14 gneE15 -gneE11 gneE10 -gneE9 -gneE8 gneE4 -gneE2 -gneE1"/>
</routes>
    